
 *******************************************************************************

         NASA-GLENN CHEMICAL EQUILIBRIUM PROGRAM CEA, OCTOBER 17, 2000
                   BY  BONNIE MCBRIDE AND SANFORD GORDON
      REFS: NASA RP-1311, PART I, 1994 AND NASA RP-1311, PART II, 1996

 *******************************************************************************



  
  
  
 !                               SAMPLE PROBLEMS
  
  
 !  EXAMPLE 1:
 !     (a)  Assigned-temperature-and-pressure problem (tp).
 !     (b)  Reactants are H2 and Air.  Since "exploded" formulas are not given,
 !          these formulas will be taken from the thermodynamic data library,
 !          thermo.lib.
 !     (c)  Calculations are for two equivalence ratios (r,eq.ratio =1,1.5).
 !     (d)  Assigned pressures are 1, 0.1, and 0.01 atm (p(atm)=1,.1,.01).
 !     (e)  Assigned temperatures are 3000 and 2000 K (t(k)=3000,2000).
 !     (f)  'only' dataset is used to restrict possible products.
 !     (g)  Energy units in the final tables are in calories (calories).
  
 ! 'problem' dataset:
    problem case=Example-1 tp  p(atm)=1,.1,.01,t(k)=3000,2000,
              r,eq.ratio=1,1.5
 ! 'reactants' dataset:
    reac
      fuel= H2  moles = 1.
      oxid= Air moles = 1.
 ! 'only' dataset:
    only  Ar    C   CO  CO2  H   H2   H2O  HNO   HO2   HNO2  HNO3  N   NH
       NO   N2   N2O3  O  O2  OH  O3
 ! 'output' dataset:
    output calories
 ! 'end' dataset
    end

 OPTIONS: TP=T  HP=F  SP=F  TV=F  UV=F  SV=F  DETN=F  SHOCK=F  REFL=F  INCD=F
 RKT=F  FROZ=F  EQL=F  IONS=F  SIUNIT=F  DEBUGF=F  SHKDBG=F  DETDBG=F  TRNSPT=F

 T,K =  3000.0000  2000.0000

 TRACE= 0.00E+00  S/R= 0.000000E+00  H/R= 0.000000E+00  U/R= 0.000000E+00

 P,BAR =     1.013250     0.101325     0.010133

    REACTANT           MOLES    (ENERGY/R),K   TEMP,K  DENSITY
        EXPLODED FORMULA
 F: H2               1.000000   0.000000E+00     0.00  0.0000
          H  2.00000
 O: Air              1.000000   0.000000E+00     0.00  0.0000
          N  1.56168  O  0.41959  AR 0.00937  C  0.00032

  SPECIES BEING CONSIDERED IN THIS SYSTEM
 (CONDENSED PHASE MAY HAVE NAME LISTED SEVERAL TIMES)
  LAST thermo.inp UPDATE:    1/26/01

  g 3/98  *Ar              g 7/97  *C               tpis79  *CO            
  g 9/99  *CO2             g 6/97  *H               g 5/99  HNO            
  tpis89  HNO2             g 5/99  HNO3             g 5/99  HO2            
  tpis78  *H2              g 8/89  H2O              g 5/97  *N             
  g 4/99  *NH              tpis89  *NO              tpis78  *N2            
  g 4/99  N2O3             g 5/97  *O               tpis78  *OH            
  tpis89  *O2              tpis89  O3             

 O/F =  34.296300

                       EFFECTIVE FUEL     EFFECTIVE OXIDANT        MIXTURE
 ENTHALPY                  h(2)/R              h(1)/R               h0/R
 (KG-MOL)(K)/KG        0.00000000E+00      0.00000000E+00      0.00000000E+00

 KG-FORM.WT./KG             bi(2)               bi(1)               b0i
  *H                   0.99212255E+00      0.00000000E+00      0.28108401E-01
  *N                   0.00000000E+00      0.53915774E-01      0.52388254E-01
  *O                   0.00000000E+00      0.14486015E-01      0.14075603E-01
  *Ar                  0.00000000E+00      0.32331926E-03      0.31415911E-03
  *C                   0.00000000E+00      0.11013224E-04      0.10701202E-04

 POINT ITN      T            H           N           O           AR
                    C 
   1   13    3000.000     -11.767     -14.452     -17.112     -27.078
                 -25.144
   2    6    2000.000     -12.631     -13.684     -17.810     -26.104
                 -28.013
   3    5    3000.000     -12.811     -15.668     -18.090     -29.508
                 -26.391
   4    7    2000.000     -13.414     -14.837     -18.560     -28.409
                 -28.861
   5    6    3000.000     -14.310     -16.920     -19.495     -32.013
                 -27.382
   6    8    2000.000     -14.202     -15.991     -19.318     -30.717
                 -29.739




               THERMODYNAMIC EQUILIBRIUM PROPERTIES AT ASSIGNED

                           TEMPERATURE AND PRESSURE

 CASE = Example-1      

             REACTANT                       MOLES         ENERGY      TEMP
                                                          CAL/MOL       K
 FUEL        H2                           1.0000000         0.000      0.000
 OXIDANT     Air                          1.0000000         0.000      0.000

 O/F=   34.29630  %FUEL=  2.833158  R,EQ.RATIO= 1.000000  PHI,EQ.RATIO= 1.000000

 THERMODYNAMIC PROPERTIES

 P, ATM            1.0000   1.0000  0.10000  0.10000  0.01000  0.01000
 T, K             3000.00  2000.00  3000.00  2000.00  3000.00  2000.00
 RHO, G/CC       9.1864-5 1.4990-4 8.0877-6 1.4957-5 6.6053-7 1.4878-6
 H, CAL/G          658.92  -203.81  1367.62  -192.34  2655.93  -165.42
 U, CAL/G          395.30  -365.36  1068.18  -354.26  2289.30  -328.20
 G, CAL/G        -7973.56 -5290.38 -8615.25 -5662.73 -9379.98 -6036.40
 S, CAL/(G)(K)     2.8775   2.5433   3.3276   2.7352   4.0120   2.9355

 M, (1/n)          22.614   24.601   19.910   24.546   16.261   24.417
 (dLV/dLP)t      -1.03437 -1.00062 -1.07935 -1.00143 -1.07486 -1.00352
 (dLV/dLT)p        1.6948   1.0200   2.5468   1.0452   2.4145   1.1090
 Cp, CAL/(G)(K)    1.6795   0.4539   3.4666   0.5187   3.7241   0.6801
 GAMMAs            1.1311   1.2263   1.1203   1.2035   1.1318   1.1677
 SON VEL,M/SEC     1117.0    910.4   1184.7    902.9   1317.6    891.8

 MOLE FRACTIONS

 *Ar              0.00710  0.00773  0.00625  0.00771  0.00511  0.00767
 *CO              0.00017  0.00001  0.00018  0.00002  0.00017  0.00004
 *CO2             0.00007  0.00025  0.00003  0.00024  0.00001  0.00022
 *H               0.04069  0.00009  0.14315  0.00041  0.31984  0.00185
 HO2              0.00001  0.00000  0.00001  0.00000  0.00000  0.00000
 *H2              0.06708  0.00304  0.08301  0.00633  0.04144  0.01309
 H2O              0.20936  0.34217  0.09741  0.33736  0.01193  0.32683
 *N               0.00001  0.00000  0.00003  0.00000  0.00009  0.00000
 *NO              0.01247  0.00049  0.01389  0.00073  0.00974  0.00108
 *N2              0.58612  0.64416  0.51456  0.64261  0.42102  0.63903
 *O               0.01560  0.00002  0.05864  0.00010  0.14381  0.00047
 *OH              0.04206  0.00100  0.05563  0.00216  0.03048  0.00460
 *O2              0.01925  0.00104  0.02721  0.00232  0.01637  0.00510

  * THERMODYNAMIC PROPERTIES FITTED TO 20000.K

    PRODUCTS WHICH WERE CONSIDERED BUT WHOSE MOLE FRACTIONS
    WERE LESS THAN 5.000000E-06 FOR ALL ASSIGNED CONDITIONS

 *C              HNO             HNO2            HNO3            *NH            
 N2O3            O3             






 O/F =  22.852599

                       EFFECTIVE FUEL     EFFECTIVE OXIDANT        MIXTURE
 ENTHALPY                  h(2)/R              h(1)/R               h0/R
 (KG-MOL)(K)/KG        0.00000000E+00      0.00000000E+00      0.00000000E+00

 KG-FORM.WT./KG             bi(2)               bi(1)               b0i
  *H                   0.99212255E+00      0.00000000E+00      0.41593896E-01
  *N                   0.00000000E+00      0.53915774E-01      0.51655400E-01
  *O                   0.00000000E+00      0.14486015E-01      0.13878701E-01
  *Ar                  0.00000000E+00      0.32331926E-03      0.30976437E-03
  *C                   0.00000000E+00      0.11013224E-04      0.10551504E-04

 POINT ITN      T            H           N           O           AR
                    C 
   1    5    3000.000     -11.376     -14.517     -17.824     -27.214
                 -24.404
   2    6    2000.000     -10.689     -13.763     -21.840     -26.263
                 -21.261
   3    5    3000.000     -12.569     -15.737     -18.424     -29.649
                 -26.158
   4    7    2000.000     -11.843     -14.915     -21.838     -28.566
                 -23.568
   5    6    3000.000     -14.102     -17.003     -19.691     -32.181
                 -27.346
   6    8    2000.000     -13.001     -16.068     -21.831     -30.871
                 -25.882




               THERMODYNAMIC EQUILIBRIUM PROPERTIES AT ASSIGNED

                           TEMPERATURE AND PRESSURE

 CASE = Example-1      

             REACTANT                       MOLES         ENERGY      TEMP
                                                          CAL/MOL       K
 FUEL        H2                           1.0000000         0.000      0.000
 OXIDANT     Air                          1.0000000         0.000      0.000

 O/F=   22.85260  %FUEL=  4.192415  R,EQ.RATIO= 1.500000  PHI,EQ.RATIO= 1.500761

 THERMODYNAMIC PROPERTIES

 P, ATM            1.0000   1.0000  0.10000  0.10000  0.01000  0.01000
 T, K             3000.00  2000.00  3000.00  2000.00  3000.00  2000.00
 RHO, G/CC       8.1298-5 1.2975-4 7.1203-6 1.2964-5 5.6650-7 1.2930-6
 H, CAL/G          712.66  -120.75  1545.94  -116.36  3217.92  -102.28
 U, CAL/G          414.78  -307.40  1205.82  -303.16  2790.43  -289.57
 G, CAL/G        -8818.04 -5830.63 -9543.88 -6260.55 -10423.3 -6691.14
 S, CAL/(G)(K)     3.1769   2.8549   3.6966   3.0721   4.5471   3.2944

 M, (1/n)          20.013   21.294   17.528   21.276   13.946   21.220
 (dLV/dLP)t      -1.03292 -1.00019 -1.08636 -1.00060 -1.08730 -1.00194
 (dLV/dLT)p        1.6619   1.0054   2.6809   1.0172   2.6459   1.0556
 Cp, CAL/(G)(K)    1.8179   0.4667   4.2215   0.4988   4.9388   0.6036
 GAMMAs            1.1337   1.2531   1.1194   1.2394   1.1295   1.2062
 SON VEL,M/SEC     1188.7    989.2   1262.1    984.2   1421.4    972.2

 MOLE FRACTIONS

 *Ar              0.00620  0.00660  0.00543  0.00659  0.00432  0.00657
 *CO              0.00017  0.00016  0.00017  0.00016  0.00014  0.00016
 *CO2             0.00004  0.00007  0.00002  0.00007  0.00000  0.00007
 *H               0.06014  0.00062  0.18240  0.00196  0.39382  0.00616
 *H2              0.14653  0.14737  0.13477  0.14674  0.06283  0.14483
 H2O              0.22436  0.29510  0.11320  0.29456  0.01486  0.29279
 *N               0.00001  0.00000  0.00003  0.00000  0.00008  0.00000
 *NO              0.00573  0.00001  0.00928  0.00003  0.00737  0.00008
 *N2              0.51403  0.54996  0.44806  0.54950  0.35646  0.54803
 *O               0.00765  0.00000  0.04197  0.00000  0.11820  0.00004
 *OH              0.03050  0.00012  0.05073  0.00039  0.03085  0.00124
 *O2              0.00463  0.00000  0.01394  0.00000  0.01106  0.00003

  * THERMODYNAMIC PROPERTIES FITTED TO 20000.K

    PRODUCTS WHICH WERE CONSIDERED BUT WHOSE MOLE FRACTIONS
    WERE LESS THAN 5.000000E-06 FOR ALL ASSIGNED CONDITIONS

 *C              HNO             HNO2            HNO3            HO2            
 *NH             N2O3            O3             



  
  
 !  EXAMPLE 2:
 !     (a)  Assigned-temperature-and-volume (or density) problem (tv).
 !     (b)  Reactants are the same as in example 1.
 !     (c)  One temperature was taken from example 1 (t(k)=3000).
 !     (d)  One mixture was taken from example 1 (phi,eq.ratio=1).
 !          Note: For stoichiometric mixtures, phi = r = 1.
 !     (e)  Densities (rho) were obtained from the results of example 1.
 !          Composition and properties in examples 1 and 2 should match for
 !          these input values.
 !     (f)  'only' dataset is used to restrict possible products.
 !     (g)  Transport properties are to be calculated (transport).
  
       reac   fuel=H2   wt%=100
              oxid Air   wt%=100
       prob  case=Example-2  phi,eq.ratio=1, tv  t(k)=3000
             rho,g/cc=9.1864d-05,8.0877d-06,6.6054d-07
       only  Ar C CO CO2 H H2 H2O HNO HO2 HNO2 HNO3 N NH NO N2 N2O3 O O2 OH  O3
       outp  transport calories
       end

 OPTIONS: TP=T  HP=F  SP=F  TV=T  UV=F  SV=F  DETN=F  SHOCK=F  REFL=F  INCD=F
 RKT=F  FROZ=F  EQL=F  IONS=F  SIUNIT=F  DEBUGF=F  SHKDBG=F  DETDBG=F  TRNSPT=T

 T,K =  3000.0000

 TRACE= 0.00E+00  S/R= 0.000000E+00  H/R= 0.000000E+00  U/R= 0.000000E+00

 SPECIFIC VOLUME,M**3/KG = 1.0885657E+01 1.2364455E+02 1.5139129E+03

    REACTANT          WT.FRAC   (ENERGY/R),K   TEMP,K  DENSITY
        EXPLODED FORMULA
 F: H2               1.000000   0.000000E+00     0.00  0.0000
          H  2.00000
 O: Air              1.000000   0.000000E+00     0.00  0.0000
          N  1.56168  O  0.41959  AR 0.00937  C  0.00032

  SPECIES BEING CONSIDERED IN THIS SYSTEM
 (CONDENSED PHASE MAY HAVE NAME LISTED SEVERAL TIMES)
  LAST thermo.inp UPDATE:    1/26/01

  g 3/98  *Ar              g 7/97  *C               tpis79  *CO            
  g 9/99  *CO2             g 6/97  *H               g 5/99  HNO            
  tpis89  HNO2             g 5/99  HNO3             g 5/99  HO2            
  tpis78  *H2              g 8/89  H2O              g 5/97  *N             
  g 4/99  *NH              tpis89  *NO              tpis78  *N2            
  g 4/99  N2O3             g 5/97  *O               tpis78  *OH            
  tpis89  *O2              tpis89  O3             

 SPECIES WITH TRANSPORT PROPERTIES

        PURE SPECIES

  Ar                C                 CO                CO2             
  H                 H2              
  H2O               N                 NO                N2              
  O                 OH              
  O2              

     BINARY INTERACTIONS

     C               O               
     CO              CO2             
     CO              N2              
     CO              O2              
     CO2             H2              
     CO2             H2O             
     CO2             N2              
     CO2             O2              
     H               H2              
     H               N               
     H               N2              
     H               O               
     H2              H2O             
     H2              N2              
     H2              O2              
     H2O             N2              
     H2O             O2              
     N               NO              
     N               N2              
     N               O               
     N               O2              
     NO              O               
     N2              O               
     N2              O2              
     O               O2              


 O/F =  34.296300

                       EFFECTIVE FUEL     EFFECTIVE OXIDANT        MIXTURE
 INTERNAL ENERGY           u(2)/R              u(1)/R              u0/R
 (KG-MOL)(K)/KG        0.00000000E+00      0.00000000E+00      0.00000000E+00

 KG-FORM.WT./KG             bi(2)               bi(1)               b0i
  *H                   0.99212255E+00      0.00000000E+00      0.28108401E-01
  *N                   0.00000000E+00      0.53915774E-01      0.52388254E-01
  *O                   0.00000000E+00      0.14486015E-01      0.14075603E-01
  *Ar                  0.00000000E+00      0.32331926E-03      0.31415911E-03
  *C                   0.00000000E+00      0.11013224E-04      0.10701202E-04

 POINT ITN      T            H           N           O           AR
                    C 
   1   13    3000.000     -11.767     -14.452     -17.112     -27.078
                 -25.144
   2    5    3000.000     -12.811     -15.668     -18.090     -29.508
                 -26.391
   3    5    3000.000     -14.310     -16.920     -19.495     -32.013
                 -27.382




               THERMODYNAMIC EQUILIBRIUM PROPERTIES AT ASSIGNED

                            TEMPERATURE AND VOLUME

 CASE = Example-2      

             REACTANT                    WT FRACTION      ENERGY      TEMP
                                          (SEE NOTE)      CAL/MOL       K  
 FUEL        H2                           1.0000000         0.000      0.000
 OXIDANT     Air                          1.0000000         0.000      0.000

 O/F=   34.29630  %FUEL=  2.833158  R,EQ.RATIO= 1.000000  PHI,EQ.RATIO= 1.000000

 THERMODYNAMIC PROPERTIES

 P, ATM            1.0000  0.10000  0.01000
 T, K             3000.00  3000.00  3000.00
 RHO, G/CC       9.1864-5 8.0877-6 6.6054-7
 H, CAL/G          658.92  1367.62  2655.92
 U, CAL/G          395.29  1068.18  2289.29
 G, CAL/G        -7973.56 -8615.25 -9379.98
 S, CAL/(G)(K)     2.8775   3.3276   4.0120

 M, (1/n)          22.614   19.910   16.261
 (dLV/dLP)t      -1.03437 -1.07935 -1.07486
 (dLV/dLT)p        1.6948   2.5468   2.4145
 Cp, CAL/(G)(K)    1.6795   3.4666   3.7241
 GAMMAs            1.1311   1.1203   1.1318
 SON VEL,M/SEC     1117.0   1184.7   1317.6

 TRANSPORT PROPERTIES (GASES ONLY)
   CONDUCTIVITY IN UNITS OF MILLICALORIES/(CM)(K)(SEC)

 VISC,MILLIPOISE  0.93569  0.94006  0.94815

  WITH EQUILIBRIUM REACTIONS

 Cp, CAL/(G)(K)    1.6795   3.4666   3.7241
 CONDUCTIVITY      4.4242   9.6932   8.8443
 PRANDTL NUMBER    0.3552   0.3362   0.3992

  WITH FROZEN REACTIONS

 Cp, CAL/(G)(K)    0.4250   0.4283   0.4369
 CONDUCTIVITY      0.6289   0.7269   0.8650
 PRANDTL NUMBER    0.6324   0.5539   0.4789

 MOLE FRACTIONS

 *Ar              0.00710  0.00625  0.00511
 *CO              0.00017  0.00018  0.00017
 *CO2             0.00007  0.00003  0.00001
 *H               0.04069  0.14315  0.31984
 HO2              0.00001  0.00001  0.00000
 *H2              0.06708  0.08301  0.04144
 H2O              0.20936  0.09741  0.01193
 *N               0.00001  0.00003  0.00009
 *NO              0.01247  0.01389  0.00974
 *N2              0.58612  0.51456  0.42102
 *O               0.01560  0.05864  0.14381
 *OH              0.04206  0.05563  0.03048
 *O2              0.01925  0.02721  0.01637

  * THERMODYNAMIC PROPERTIES FITTED TO 20000.K

    PRODUCTS WHICH WERE CONSIDERED BUT WHOSE MOLE FRACTIONS
    WERE LESS THAN 5.000000E-06 FOR ALL ASSIGNED CONDITIONS

 *C              HNO             HNO2            HNO3            *NH            
 N2O3            O3             

 NOTE. WEIGHT FRACTION OF FUEL IN TOTAL FUELS AND OF OXIDANT IN TOTAL OXIDANTS



  
  
 !  EXAMPLE 3:
 !     (a)  Combustion or assigned-enthalpy-and-pressure problem (hp).
 !     (b)  Fuels are 'C7H8(L)' and 'C8H18(L),n-octa' at 298.15 K. The oxidant is
 !          air at 700 K.
 !     (c)  Oxidant-to-fuel weight ratio is 17 (o/f =17).  Weight fractions are
 !          fractions of fuel relative to total fuel and fractions of oxidant
 !          relative to total oxidant.
 !     (d)  Mixture enthalpy is calculated from reactant values given in
 !          thermo.lib. This is because data for these species are given in
 !          thermo.lib and the species names match exactly.
 !     (e)  Many species are omitted from the product data base ('omit' dataset).
 !          Note:  these species names must match those used in thermo.lib.
 !     (f)  Assigned pressures are 100, 10, and 1 bar (p(bar)=100,10,1).
 !     (g)  Mixture properties are to be printed in SI units (siunits).
 !     (h)  Mole fractions > 1.e-15 are to be in e-format (trace=1.e-15).
 !
 reac
      oxid Air  wtfrac= 1   t(k)=700.0
      fuel C7H8(L)   wtfrac= .4   t(k)= 298.15
      fuel C8H18(L),n-octa   wtfrac= .6 t(k)= 298.15
 prob   case=Example-3   hp  p(bar)=100,10,1, o/f = 17
 output siunits  trace=1.e-15
  
 omit CCN              CNC              C2N2             C2O
      C3H4,allene      C3H4,propyne     C3H4,cyclo-      C3
      C3H5,allyl       C3H6,propylene   C3H6,cyclo-      C3H3,propargyl
      C3H6O            C3H7,n-propyl    C3H7,i-propyl    Jet-A(g)
      C3O2             C4               C4H2             C3H8O,2propanol
      C4H4,1,3-cyclo-  C4H6,butadiene   C4H6,2-butyne    C3H8O,1propanol
      C4H8,tr2-butene  C4H8,isobutene   C4H8,cyclo-      C4H6,cyclo-
      (CH3COOH)2       C4H9,n-butyl     C4H9,i-butyl     C4H8,1-butene
      C4H9,s-butyl     C4H9,t-butyl     C4H10,isobutane  C4H8,cis2-buten
      C4H10,n-butane   C4N2             C5               C3H8
      C5H6,1,3cyclo-   C5H8,cyclo-      C5H10,1-pentene  C10H21,n-decyl
      C5H10,cyclo-     C5H11,pentyl     C5H11,t-pentyl   C12H10,biphenyl
      C5H12,n-pentane  C5H12,i-pentane  CH3C(CH3)2CH3    C12H9,o-bipheny
      C6H6             C6H5OH,phenol    C6H10,cyclo-     C6H2
      C6H12,1-hexene   C6H12,cyclo-     C6H13,n-hexyl    C6H5,phenyl
      C7H7,benzyl      C7H8             C7H8O,cresol-mx  C6H5O,phenoxy
      C7H14,1-heptene  C7H15,n-heptyl   C7H16,n-heptane  C10H8,azulene
      C8H8,styrene     C8H10,ethylbenz  C8H16,1-octene   C10H8,napthlene
      C8H17,n-octyl    C8H18,isooctane  C8H18,n-octane   C9H19,n-nonyl
      Jet-A(L)         C6H6(L)          H2O(s)           H2O(L)
 end  End all input for example 3

 OPTIONS: TP=F  HP=T  SP=F  TV=F  UV=F  SV=F  DETN=F  SHOCK=F  REFL=F  INCD=F
 RKT=F  FROZ=F  EQL=F  IONS=F  SIUNIT=T  DEBUGF=F  SHKDBG=F  DETDBG=F  TRNSPT=F

 TRACE= 1.00E-15  S/R= 0.000000E+00  H/R= 0.000000E+00  U/R= 0.000000E+00

 P,BAR =   100.000000    10.000000     1.000000

    REACTANT          WT.FRAC   (ENERGY/R),K   TEMP,K  DENSITY
        EXPLODED FORMULA
 O: Air              1.000000   0.143092E+04   700.00  0.0000
          N  1.56168  O  0.41959  AR 0.00937  C  0.00032
 F: C7H8(L)          0.400000   0.146491E+04   298.15  0.0000
          C  7.00000  H  8.00000
 F: C8H18(L),n-octa  0.600000  -0.300992E+05   298.15  0.0000
          C  8.00000  H 18.00000

  SPECIES BEING CONSIDERED IN THIS SYSTEM
 (CONDENSED PHASE MAY HAVE NAME LISTED SEVERAL TIMES)
  LAST thermo.inp UPDATE:    1/26/01

  g 3/98  *Ar              g 7/97  *C               tpis79  *CH            
  g 8/99  CH2              g 8/99  CH3              g11/00  CH2OH          
  g 7/00  CH3O             g 8/99  CH4              g 7/00  CH3OH          
  g 8/99  *CN              g12/99  CNN              tpis79  *CO            
  g 9/99  *CO2             tpis91  COOH             tpis91  *C2            
  g 1/91  C2H              g 6/89  CHCO,ketyl       g 1/91  C2H2,acetylene 
  g12/89  C2H2,vinylidene  g 7/00  CH2CO,ketene     g 2/92  C2H3,vinyl     
  g 9/00  CH3CN            g 6/96  CH3CO,acetyl     g 1/00  C2H4           
  g 8/88  C2H4O,ethylen-o  g 8/88  CH3CHO,ethanal   g 6/00  CH3COOH        
  g 7/00  C2H5             g 7/00  C2H6             g 8/88  CH3N2CH3       
  g 8/88  C2H5OH           g 7/00  CH3OCH3          x 4/98  C3H3,1-propynl 
  x 4/98  C3H3,2-propynl   x10/93  C4H6,1butyne     x10/93  C4H6,2butyne   
  g 6/96  C6H14,n-hexane   x10/85  C7H16,2-methylh  g 8/93  C10H8,naphthale
  g 6/97  *H               g 7/88  HCN              g 1/01  HCO            
  tpis89  HCCN             g11/92  HNC              g 7/00  HNCO           
  g 5/99  HNO              tpis89  HNO2             g 5/99  HNO3           
  g 5/99  HO2              tpis78  *H2              g 8/88  HCHO,formaldehy
  g 8/88  HCOOH            g 8/89  H2O              g 6/99  H2O2           
  g 8/88  (HCOOH)2         g 5/97  *N               g 2/96  NCO            
  g 4/99  *NH              g 5/99  NH2              tpis89  NH3            
  tpis89  *NO              g 4/99  NO2              j12/64  NO3            
  tpis78  *N2              g12/89  NCN              g 5/99  N2H2           
  tpis89  NH2NO2           g 4/99  N2H4             g 4/99  N2O            
  g 4/99  N2O3             tpis89  N2O4             g 4/99  N2O5           
  tpis89  N3               g 4/99  N3H              g 5/97  *O             
  tpis78  *OH              tpis89  *O2              tpis89  O3             
  x 4/83  C(gr)            x 4/83  C(gr)            x 4/83  C(gr)          
  g11/99  H2O(cr)        

 O/F =  17.000000

                       EFFECTIVE FUEL     EFFECTIVE OXIDANT        MIXTURE
 ENTHALPY                  h(2)/R              h(1)/R               h0/R
 (KG-MOL)(K)/KG       -0.15174025E+03      0.49401283E+02      0.38226754E+02

 KG-FORM.WT./KG             bi(2)               bi(1)               b0i
  *N                   0.00000000E+00      0.53915774E-01      0.50920453E-01
  *O                   0.00000000E+00      0.14486015E-01      0.13681236E-01
  *Ar                  0.00000000E+00      0.32331926E-03      0.30535708E-03
  *C                   0.72410090E-01      0.11013224E-04      0.40331841E-02
  *H                   0.12927767E+00      0.00000000E+00      0.71820928E-02

 POINT ITN      T            N           O           AR          C 
                    H 
   1   19    2419.346     -11.651     -14.247     -21.787     -21.401
                 -11.891
   2    5    2391.607     -12.783     -15.355     -24.066     -21.672
                 -12.538
   3    5    2340.148     -13.898     -16.426     -26.325     -22.191
                 -13.247




         THERMODYNAMIC EQUILIBRIUM COMBUSTION PROPERTIES AT ASSIGNED

                                   PRESSURES

 CASE = Example-3      

             REACTANT                    WT FRACTION      ENERGY      TEMP
                                          (SEE NOTE)     KJ/KG-MOL      K  
 OXIDANT     Air                          1.0000000     11897.374    700.000
 FUEL        C7H8(L)                      0.4000000     12179.997    298.150
 FUEL        C8H18(L),n-octa              0.6000000   -250259.981    298.150

 O/F=   17.00000  %FUEL=  5.555556  R,EQ.RATIO= 0.852073  PHI,EQ.RATIO= 0.851848

 THERMODYNAMIC PROPERTIES

 P, BAR            100.00   10.000   1.0000
 T, K             2419.35  2391.61  2340.15
 RHO, KG/CU M    1.4428 1 1.4565 0 1.4827-1
 H, KJ/KG          317.84   317.84   317.84
 U, KJ/KG         -375.27  -368.76  -356.61
 G, KJ/KG        -19443.4 -20795.9 -21891.3
 S, KJ/(KG)(K)     8.1680   8.8283   9.4905

 M, (1/n)          29.022   28.962   28.849
 (dLV/dLP)t      -1.00067 -1.00157 -1.00322
 (dLV/dLT)p        1.0186   1.0443   1.0915
 Cp, KJ/(KG)(K)    1.6068   1.8128   2.2015
 GAMMAs            1.2260   1.2064   1.1803
 SON VEL,M/SEC      921.8    910.1    892.2

 MOLE FRACTIONS

 *Ar             8.8622-3 8.8437-3 8.8093-3
 *CN             5.909-14 1.081-13 1.200-13
 *CO             1.6822-3 4.3301-3 9.2333-3
 *CO2            1.1537-1 1.1248-1 1.0712-1
 COOH            5.1796-8 2.3423-8 8.6866-9
 *H              2.7694-5 1.2480-4 4.5985-4
 HCN             9.663-12 1.081-11 7.932-12
 HCO             7.432-10 9.009-10 7.701-10
 HNC             1.024-12 1.107-12 7.599-13
 HNCO            1.237 -9 5.178-10 1.657-10
 HNO             4.2388-7 2.0930-7 9.1837-8
 HNO2            1.8550-6 3.2798-7 5.7691-8
 HNO3            1.133 -9 6.657-11 4.067-12
 HO2             7.8133-6 4.1704-6 2.1217-6
 *H2             2.5157-4 6.6470-4 1.4947-3
 HCHO,formaldehy 1.723-11 1.172-11 5.624-12
 HCOOH           6.486 -9 1.651 -9 3.454-10
 H2O             1.0289-1 1.0154-1 9.9282-2
 H2O2            9.9159-7 2.9651-7 8.4375-8
 *N              1.1573-8 2.7706-8 5.1380-8
 NCO             8.646-11 6.074-11 3.089-11
 *NH             2.9545-9 3.9044-9 3.9366-9
 NH2             1.721 -9 1.291 -9 7.471-10
 NH3             3.909 -9 1.731 -9 6.186-10
 *NO             6.7917-3 6.5764-3 6.1763-3
 NO2             2.3526-5 7.5950-6 2.4944-6
 NO3             1.933-10 1.962-11 2.015-12
 *N2             7.3550-1 7.3408-1 7.3142-1
 N2H2            5.208-13 1.210-13 2.129-14
 NH2NO2          2.450-15 6.786-17 1.669-18
 N2O             3.6533-6 1.1175-6 3.3133-7
 N2O3            2.448-11 7.761-13 2.459-14
 N2O4            3.111-15 3.306-17 3.704-19
 N3              1.241-12 3.029-13 5.824-14
 N3H             3.877-13 5.282-14 5.650-15
 *O              1.5577-4 4.3419-4 1.0769-3
 *OH             2.1261-3 3.4572-3 5.1822-3
 *O2             2.6303-2 2.7454-2 2.9745-2
 O3              1.2270-8 3.7838-9 1.1378-9

  * THERMODYNAMIC PROPERTIES FITTED TO 20000.K

    PRODUCTS WHICH WERE CONSIDERED BUT WHOSE MOLE FRACTIONS
    WERE LESS THAN 1.000000E-15 FOR ALL ASSIGNED CONDITIONS

 *C              *CH             CH2             CH3             CH2OH          
 CH3O            CH4             CH3OH           CNN             *C2            
 C2H             CHCO,ketyl      C2H2,acetylene  C2H2,vinylidene CH2CO,ketene   
 C2H3,vinyl      CH3CN           CH3CO,acetyl    C2H4            C2H4O,ethylen-o
 CH3CHO,ethanal  CH3COOH         C2H5            C2H6            CH3N2CH3       
 C2H5OH          CH3OCH3         C3H3,1-propynl  C3H3,2-propynl  C4H6,1butyne   
 C4H6,2butyne    C6H14,n-hexane  C7H16,2-methylh C10H8,naphthale HCCN           
 (HCOOH)2        NCN             N2H4            N2O5            C(gr)          
 H2O(cr)        

 NOTE. WEIGHT FRACTION OF FUEL IN TOTAL FUELS AND OF OXIDANT IN TOTAL OXIDANTS



  
  
 !  EXAMPLE 4:
 !     (a)  Assigned-internal-energy-and-density problem (uv).
 !     (b)  Fuel, oxidant, and oxidant-to-fuel weight ratio are the same as in
 !          example 3.
 !     (c)  Internal energy u was taken from col. 1 of the output of example 3.
 !          However, input requires u/R, i.e., u = -375.27 kJ/kg and
 !          u/R = -375.27/8.31451 = -45.1343 (kg-mol)(K)/kg  (u/r=-45.1343).
 !     (d)  Units for density input are limited to g/cc and kg/m**3.  From
 !          example 3 point 1, rho = 14.428 kg/m**3 (rho,kg/m**3=14.428).
 !     (e)  Mixture properties are to be printed in SI units (default unit).
 !     (f)  Mole fractions > 1.e-15 are to be in e-format (trace=1.e-15).
 !     (g)  Note that since all parameters for this example are the same as
 !          those used for col. 1 of example 3, assigning u and rho from
 !          this column should yield the same pressure and temperature assigned
 !          for that point in example 3.
  
  prob   case=Example-4, o/f=17   uv  u/r=-45.1343, rho,kg/m**3=14.428
  
 output  trace=1.e-15
  
 reac   oxid Air       wtfrac= 1    t(k)=700.0
        fuel C7H8(L)   wtfrac= .4   t(k)= 298.15
        fuel C8H18(L),n-octa wtfrac= .6 t(k)= 298.15
  
 omit CCN  CNC  C2N2  C2O  C3H4,allene  C3H4,propyne  C3H4,cyclo-  C3
      C3H5,allyl      C3H6,propylene  C3H6,cyclo-     C3H3,propargyl
      C3H6O           C3H7,n-propyl   C3H7,i-propyl   Jet-A(g)
      C3O2            C4              C4H2            C3H8O,2propanol
      C4H4,1,3-cyclo- C4H6,butadiene  C4H6,2-butyne   C3H8O,1propanol
      C4H8,tr2-butene C4H8,isobutene  C4H8,cyclo-     C4H6,cyclo-
      (CH3COOH)2      C4H9,n-butyl    C4H9,i-butyl    C4H8,1-butene
      C4H9,s-butyl    C4H9,t-butyl    C4H10,isobutane C4H8,cis2-buten
      C4H10,n-butane  C4N2            C5              C3H8
      C5H6,1,3cyclo-  C5H8,cyclo-     C5H10,1-pentene C10H21,n-decyl
      C5H10,cyclo-    C5H11,pentyl    C5H11,t-pentyl  C12H10,biphenyl
      C5H12,n-pentane C5H12,i-pentane CH3C(CH3)2CH3   C12H9,o-bipheny
      C6H6            C6H5OH,phenol   C6H10,cyclo-    C6H2
      C6H12,1-hexene  C6H12,cyclo-    C6H13,n-hexyl   C6H5,phenyl
      C7H7,benzyl     C7H8            C7H8O,cresol-mx C6H5O,phenoxy
      C7H14,1-heptene C7H15,n-heptyl  C7H16,n-heptane C10H8,azulene
      C8H8,styrene    C8H10,ethylbenz C8H16,1-octene  C10H8,napthlene
      C8H17,n-octyl   C8H18,isooctane C8H18,n-octane  C9H19,n-nonyl
      C7H8(L)  C8H18(L),n-octa Jet-A(L)  C6H6(L)  H2O(s)   H2O(L)
  end

 OPTIONS: TP=F  HP=F  SP=F  TV=F  UV=T  SV=F  DETN=F  SHOCK=F  REFL=F  INCD=F
 RKT=F  FROZ=F  EQL=F  IONS=F  SIUNIT=T  DEBUGF=F  SHKDBG=F  DETDBG=F  TRNSPT=F

 TRACE= 1.00E-15  S/R= 0.000000E+00  H/R= 0.000000E+00  U/R=-4.513430E+01

 SPECIFIC VOLUME,M**3/KG = 6.9309676E-02

    REACTANT          WT.FRAC   (ENERGY/R),K   TEMP,K  DENSITY
        EXPLODED FORMULA
 O: Air              1.000000   0.730917E+03   700.00  0.0000
          N  1.56168  O  0.41959  AR 0.00937  C  0.00032
 F: C7H8(L)          0.400000   0.146491E+04   298.15  0.0000
          C  7.00000  H  8.00000
 F: C8H18(L),n-octa  0.600000  -0.300992E+05   298.15  0.0000
          C  8.00000  H 18.00000

  SPECIES BEING CONSIDERED IN THIS SYSTEM
 (CONDENSED PHASE MAY HAVE NAME LISTED SEVERAL TIMES)
  LAST thermo.inp UPDATE:    1/26/01

  g 3/98  *Ar              g 7/97  *C               tpis79  *CH            
  g 8/99  CH2              g 8/99  CH3              g11/00  CH2OH          
  g 7/00  CH3O             g 8/99  CH4              g 7/00  CH3OH          
  g 8/99  *CN              g12/99  CNN              tpis79  *CO            
  g 9/99  *CO2             tpis91  COOH             tpis91  *C2            
  g 1/91  C2H              g 6/89  CHCO,ketyl       g 1/91  C2H2,acetylene 
  g12/89  C2H2,vinylidene  g 7/00  CH2CO,ketene     g 2/92  C2H3,vinyl     
  g 9/00  CH3CN            g 6/96  CH3CO,acetyl     g 1/00  C2H4           
  g 8/88  C2H4O,ethylen-o  g 8/88  CH3CHO,ethanal   g 6/00  CH3COOH        
  g 7/00  C2H5             g 7/00  C2H6             g 8/88  CH3N2CH3       
  g 8/88  C2H5OH           g 7/00  CH3OCH3          x 4/98  C3H3,1-propynl 
  x 4/98  C3H3,2-propynl   x10/93  C4H6,1butyne     x10/93  C4H6,2butyne   
  g 6/96  C6H14,n-hexane   x10/85  C7H16,2-methylh  g 8/93  C10H8,naphthale
  g 6/97  *H               g 7/88  HCN              g 1/01  HCO            
  tpis89  HCCN             g11/92  HNC              g 7/00  HNCO           
  g 5/99  HNO              tpis89  HNO2             g 5/99  HNO3           
  g 5/99  HO2              tpis78  *H2              g 8/88  HCHO,formaldehy
  g 8/88  HCOOH            g 8/89  H2O              g 6/99  H2O2           
  g 8/88  (HCOOH)2         g 5/97  *N               g 2/96  NCO            
  g 4/99  *NH              g 5/99  NH2              tpis89  NH3            
  tpis89  *NO              g 4/99  NO2              j12/64  NO3            
  tpis78  *N2              g12/89  NCN              g 5/99  N2H2           
  tpis89  NH2NO2           g 4/99  N2H4             g 4/99  N2O            
  g 4/99  N2O3             tpis89  N2O4             g 4/99  N2O5           
  tpis89  N3               g 4/99  N3H              g 5/97  *O             
  tpis78  *OH              tpis89  *O2              tpis89  O3             
  x 4/83  C(gr)            x 4/83  C(gr)            x 4/83  C(gr)          
  g11/99  H2O(cr)        

 O/F =  17.000000

                       EFFECTIVE FUEL     EFFECTIVE OXIDANT        MIXTURE
 INTERNAL ENERGY           u(2)/R              u(1)/R              u0/R
 (KG-MOL)(K)/KG       -0.15174025E+03      0.25234334E+02     -0.45134300E+02

 KG-FORM.WT./KG             bi(2)               bi(1)               b0i
  *N                   0.00000000E+00      0.53915774E-01      0.50920453E-01
  *O                   0.00000000E+00      0.14486015E-01      0.13681236E-01
  *Ar                  0.00000000E+00      0.32331926E-03      0.30535708E-03
  *C                   0.72410090E-01      0.11013224E-04      0.40331841E-02
  *H                   0.12927767E+00      0.00000000E+00      0.71820928E-02

 POINT ITN      T            N           O           AR          C 
                    H 
   1   16    2419.348     -11.651     -14.247     -21.787     -21.401
                 -11.891




         THERMODYNAMIC EQUILIBRIUM COMBUSTION PROPERTIES AT ASSIGNED

                                     VOLUME

 CASE = Example-4,     

             REACTANT                    WT FRACTION      ENERGY      TEMP
                                          (SEE NOTE)     KJ/KG-MOL      K  
 OXIDANT     Air                          1.0000000      6077.217    700.000
 FUEL        C7H8(L)                      0.4000000     12179.997    298.150
 FUEL        C8H18(L),n-octa              0.6000000   -250259.981    298.150

 O/F=   17.00000  %FUEL=  5.555556  R,EQ.RATIO= 0.852073  PHI,EQ.RATIO= 0.851848

 THERMODYNAMIC PROPERTIES

 P, BAR            100.00
 T, K             2419.35
 RHO, KG/CU M    1.4428 1
 H, KJ/KG          317.84
 U, KJ/KG         -375.27
 G, KJ/KG        -19443.4
 S, KJ/(KG)(K)     8.1680

 M, (1/n)          29.022
 (dLV/dLP)t      -1.00067
 (dLV/dLT)p        1.0186
 Cp, KJ/(KG)(K)    1.6068
 GAMMAs            1.2260
 SON VEL,M/SEC      921.8

 MOLE FRACTIONS

 *Ar             8.8622-3
 *CN             5.909-14
 *CO             1.6822-3
 *CO2            1.1537-1
 COOH            5.1797-8
 *H              2.7694-5
 HCN             9.663-12
 HCO             7.432-10
 HNC             1.024-12
 HNCO            1.2375-9
 HNO             4.2389-7
 HNO2            1.8550-6
 HNO3            1.1333-9
 HO2             7.8134-6
 *H2             2.5157-4
 HCHO,formaldehy 1.723-11
 HCOOH           6.4858-9
 H2O             1.0289-1
 H2O2            9.9160-7
 *N              1.1573-8
 NCO             8.646-11
 *NH             2.9545-9
 NH2             1.7210-9
 NH3             3.9094-9
 *NO             6.7918-3
 NO2             2.3526-5
 NO3             1.933-10
 *N2             7.3550-1
 N2H2            5.208-13
 NH2NO2          2.450-15
 N2O             3.6534-6
 N2O3            2.449-11
 N2O4            3.111-15
 N3              1.242-12
 N3H             3.877-13
 *O              1.5577-4
 *OH             2.1261-3
 *O2             2.6303-2
 O3              1.2270-8

  * THERMODYNAMIC PROPERTIES FITTED TO 20000.K

    PRODUCTS WHICH WERE CONSIDERED BUT WHOSE MOLE FRACTIONS
    WERE LESS THAN 1.000000E-15 FOR ALL ASSIGNED CONDITIONS

 *C              *CH             CH2             CH3             CH2OH          
 CH3O            CH4             CH3OH           CNN             *C2            
 C2H             CHCO,ketyl      C2H2,acetylene  C2H2,vinylidene CH2CO,ketene   
 C2H3,vinyl      CH3CN           CH3CO,acetyl    C2H4            C2H4O,ethylen-o
 CH3CHO,ethanal  CH3COOH         C2H5            C2H6            CH3N2CH3       
 C2H5OH          CH3OCH3         C3H3,1-propynl  C3H3,2-propynl  C4H6,1butyne   
 C4H6,2butyne    C6H14,n-hexane  C7H16,2-methylh C10H8,naphthale HCCN           
 (HCOOH)2        NCN             N2H4            N2O5            C(gr)          
 H2O(cr)        

 NOTE. WEIGHT FRACTION OF FUEL IN TOTAL FUELS AND OF OXIDANT IN TOTAL OXIDANTS



  
  
 !  EXAMPLE 5:
 !     (a)  Combustion problem (hp) for solid propellant with 5 ingredients.
 !     (b)  The assigned enthalpies and "exploded" formulas for four of the
 !          components are to be taken from thermo.lib.  However, data for
 !          'CHOS-Binder' are not available in thermo.lib and thus the "exploded"
 !          formula and enthalpy are given in the 'reac' dataset.
 !     (c)  The reactants are given in percent by weight (wt%=...).  The
 !          propellant components are not designated as fuel and oxidant - they
 !          are labelled with the 'name' alternative.  Weight fractions are
 !          relative to the total reactant.
 !     (d)  Five pressures are given in units of psia (p,psia=500,250,
 !          125,50,5,).
 !     (e)  As with examples 3 and 4, many species in thermo.lib are omitted
 !          as possible products by means of an 'omit' dataset.
 !     (f)  Energy units in the final tables are in calories (calories).
  
 reac
    name NH4CLO4(I)   wt%= 72.06  t(k)=298.15
    name CHOS-Binder C 1 H 1.86955 O .031256 S .008415 wt%=18.58
                           h,cal=-2999.082 t(k)=298.15
    name AL(cr)  wt%= 9.   t(k)=298.15
    name MgO(cr)  wt%= .2   t(k)=298.15
    name H2O(L)  wt%=.16   t(k)=298.15
  
 prob    case=5, hp   p,psia=500,250,125,50,5,
  
 outp   calories
  
 omit COOH  C2 C2H CHCO,ketyl  C2H2,vinylidene  CH2CO,ketene  C2H3,vinyl
      CH3CO,acetyl  C2H4O,ethylen-o CH3CHO,ethanal  CH3COOH   (HCOOH)2
      C2H5            C2H6            CH3N2CH3        CH3OCH3
      C2H5OH          CCN             CNC             C2N2
      C2O             C3              C3H3,propargyl  C3H4,allene
      C3H4,propyne    C3H4,cyclo-     C3H5,allyl      C3H6,propylene
      C3H6,cyclo-     C3H6O           C3H7,n-propyl   C3H7,i-propyl
      C3H8            C3H8O,1propanol C3H8O,2propanol C3O2
      C4              C4H2            C4H4,1,3-cyclo- C4H6,butadiene
      C4H6,2-butyne   C4H6,cyclo-     C4H8,1-butene   C4H8,cis2-buten
      C4H8,tr2-butene C4H8,isobutene  C4H8,cyclo-     (CH3COOH)2
      C4H9,n-butyl    C4H9,i-butyl    C4H9,s-butyl    C4H9,t-butyl
      C4H10,isobutane C4H10,n-butane  C4N2            C5
      C5H6,1,3cyclo-  C5H8,cyclo-     C5H10,1-pentene C5H10,cyclo-
      C5H11,pentyl    C5H11,t-pentyl  C5H12,n-pentane C5H12,i-pentane
      CH3C(CH3)2CH3   C6H2            C6H5,phenyl     C6H5O,phenoxy
      C6H6            C6H5OH,phenol   C6H10,cyclo-    C6H12,1-hexene
      C6H12,cyclo-    C6H13,n-hexyl    C7H7,benzyl    C7H8
      C7H8O,cresol-mx C7H14,1-heptene C7H15,n-heptyl  C7H16,n-heptane
      C8H8,styrene    C8H10,ethylbenz C8H16,1-octene  C8H17,n-octyl
      C8H18,isooctane C8H18,n-octane  C9H19,n-nonyl   C10H8,naphthale
      C10H21,n-decyl  C12H9,o-bipheny C12H10,biphenyl Jet-A(g)
      HNCO   HNO  HNO2   HNO3   HCCN    HCHO,formaldehy  HCOOH
      NH     NH2  NH2OH  NCN    N2H2  NH2NO2   N2H4  H2O2
  (HCOOH)2   C6H6(L)  C7H8(L)  C8H18(L),n-octa  Jet-A(L)  H2O(s) H2O(L)
  end

 OPTIONS: TP=F  HP=T  SP=F  TV=F  UV=F  SV=F  DETN=F  SHOCK=F  REFL=F  INCD=F
 RKT=F  FROZ=F  EQL=F  IONS=F  SIUNIT=F  DEBUGF=F  SHKDBG=F  DETDBG=F  TRNSPT=F

 TRACE= 0.00E+00  S/R= 0.000000E+00  H/R= 0.000000E+00  U/R= 0.000000E+00

 P,BAR =    34.473652    17.236826     8.618413     3.447365     0.344737

    REACTANT          WT.FRAC   (ENERGY/R),K   TEMP,K  DENSITY
        EXPLODED FORMULA
 N: NH4CLO4(I)       0.720600  -0.355724E+05   298.15  0.0000
          N  1.00000  H  4.00000  CL 1.00000  O  4.00000
 N: CHOS-Binder      0.185800  -0.150919E+04   298.15  0.0000
          C  1.00000  H  1.86955  O  0.03126  S  0.00842
 N: AL(cr)           0.090000   0.496279E-05   298.15  0.0000
          AL 1.00000
 N: MgO(cr)          0.002000  -0.723554E+05   298.15  0.0000
          MG 1.00000  O  1.00000
 N: H2O(L)           0.001600  -0.343773E+05   298.15  0.0000
          H  2.00000  O  1.00000

  SPECIES BEING CONSIDERED IN THIS SYSTEM
 (CONDENSED PHASE MAY HAVE NAME LISTED SEVERAL TIMES)
  LAST thermo.inp UPDATE:    1/26/01

  g12/97  *AL              tpis96  ALC              tpis96  ALC2           
  tpis96  ALCL             tpis96  ALCL2            tpis96  ALCL3          
  tpis96  ALH              tpis96  ALHCL            tpis96  ALHCL2         
  tpis96  ALH2             tpis96  ALH2CL           tpis96  ALH3           
  tpis96  ALN              tpis96  *ALO             tpis96  ALOCL          
  tpis96  ALOCL2           tpis96  ALOH             tpis96  ALOHCL         
  tpis96  ALOHCL2          tpis96  ALO2             tpis96  AL(OH)2        
  tpis96  AL(OH)2CL        tpis96  AL(OH)3          tpis96  ALS            
  tpis96  ALS2             tpis96  AL2              tpis96  AL2C2          
  tpis96  AL2CL6           tpis96  AL2O             tpis96  AL2O2          
  tpis96  AL2O3            tpis96  AL2S             tpis96  AL2S2          
  g 7/97  *C               g 8/99  CCL              g 8/99  CCL2           
  x12/93  CCL3             tpis91  CCL4             tpis79  *CH            
  g 9/99  CHCL             x12/93  CHCL2            g 7/99  CHCL3          
  g 8/99  CH2              g12/99  CH2CL            tpis91  CH2CL2         
  g 8/99  CH3              tpis91  CH3CL            g11/00  CH2OH          
  g 7/00  CH3O             g 8/99  CH4              g 7/00  CH3OH          
  g 8/99  *CN              g12/99  CNN              tpis79  *CO            
  tpis91  COCL             tpis91  COCL2            tpis91  COHCL          
  g 6/95  COS              g 9/99  *CO2             g 7/99  CS             
  g 6/95  CS2              tpis91  C2CL             tpis91  C2CL2          
  tpis91  C2CL3            tpis91  C2CL4            tpis91  C2CL6          
  tpis91  C2HCL            g12/99  C2HCL3           g 1/91  C2H2,acetylene 
  tpis91  C2H2CL2          tpis91  C2H3CL           g 9/00  CH3CN          
  g 1/00  C2H4             x 4/98  C3H3,1-propynl   x 4/98  C3H3,2-propynl 
  x10/93  C4H6,1butyne     x10/93  C4H6,2butyne     g 6/96  C6H14,n-hexane 
  x10/85  C7H16,2-methylh  g 7/97  *CL              g 6/95  CLCN           
  tpis89  CLO              g 7/93  CLO2             tpis89  CL2            
  tpis89  CL2O             g 6/97  *H               tpis96  HALO           
  tpis96  HALO2            g 7/88  HCN              g 1/01  HCO            
  tpis89  HCL              g11/92  HNC              g 1/01  HOCL           
  g 5/99  HO2              tpis78  *H2              g 8/89  H2O            
  tpis89  H2S              tpis89  H2SO4            g 6/97  *Mg            
  tpis96  MgCL             tpis96  MgCL2            tpis96  MgH            
  J 3/64  MgN              tpis96  *MgO             tpis96  MgOH           
  tpis96  Mg(OH)2          tpis96  MgS              tpis96  Mg2            
  g 5/97  *N               g 2/96  NCO              tpis89  NH3            
  tpis89  *NO              g 4/99  NOCL             g 4/99  NO2            
  g 4/99  NO2CL            j12/64  NO3              tpis78  *N2            
  g 4/99  N2O              g 4/99  N2O3             tpis89  N2O4           
  g 4/99  N2O5             tpis89  N3               g 4/99  N3H            
  g 5/97  *O               tpis78  *OH              tpis89  *O2            
  tpis89  O3               g 5/97  *S               j 6/78  SCL            
  j 6/78  SCL2             tpis89  SH               tpis89  SN             
  tpis89  SO               tpis89  SO2              j 6/71  SO2CL2         
  tpis89  SO3              tpis89  S2               g12/00  S2CL2          
  tpis89  S2O              tpis89  S3               tpis89  S4             
  tpis89  S5               tpis89  S6               tpis89  S7             
  tpis89  S8               coda89  AL(cr)           coda89  AL(L)          
  tpis96  ALCL3(cr)        tpis96  ALCL3(L)         tpis96  ALH3(a)        
  tpis96  ALN(cr)          tpis96  ALN(cr)          tpis96  ALN(L)         
  tpis96  ALN(L)           tpis96  AL(OH)3(a)       tpis96  AL2O3(a)       
  tpis96  AL2O3(a)         tpis96  AL2O3(a)         tpis96  AL2O3(L)       
  tpis96  AL2S3(a)         tpis96  AL2S3(a)         tpis96  AL2S3(b)       
  tpis96  AL2S3(L)         tpis96  AL4C3(cr)        tpis96  AL4C3(cr)      
  x 4/83  C(gr)            x 4/83  C(gr)            x 4/83  C(gr)          
  g11/99  H2O(cr)          j 9/77  H2SO4(L)         srd 93  Mg(cr)         
  srd 93  Mg(cr)           srd 93  Mg(L)            j12/79  MgAL2O4(cr)    
  j12/79  MgAL2O4(cr)      j12/79  MgAL2O4(L)       tpis96  MgCO3(cr)      
  tpis96  MgCO3(cr)        tpis96  MgCO3(L)         tpis96  MgCL2(cr)      
  tpis96  MgCL2(cr)        tpis96  MgCL2(L)         tpis96  MgH2(b)        
  tpis96  MgH2(L)          tpis96  MgO(cr)          tpis96  MgO(cr)        
  tpis96  MgO(L)           tpis96  Mg(OH)2(cr)      tpis96  Mg(OH)2(cr)    
  tpis96  Mg(OH)2(L)       tpis96  MgS(cr)          tpis96  MgS(cr)        
  tpis96  MgS(L)           tpis96  MgSO4(II)        tpis96  MgSO4(II)      
  tpis96  MgSO4(I)         tpis96  MgSO4(L)         tpis96  Mg3N2(cr)      
  j 9/65  NH4CL(II)        j 9/65  NH4CL(III)       j 9/65  NH4CL(III)     
  tpis89  S(a)             tpis89  S(b)             tpis89  S(L)           
  tpis89  S(L)             tpis89  S(L)             tpis89  S(L)           
  tpis89  S(L)             j 6/78  SCL2(L)          j 6/78  S2CL2(L)       

 O/F =   0.000000

                       EFFECTIVE FUEL     EFFECTIVE OXIDANT        MIXTURE
 ENTHALPY                  h(2)/R              h(1)/R               h0/R
 (KG-MOL)(K)/KG       -0.24394239E+03      0.00000000E+00     -0.24394239E+03

 KG-FORM.WT./KG             bi(2)               bi(1)               b0i
  *N                   0.61333506E-02      0.00000000E+00      0.61333506E-02
  *H                   0.48397509E-01      0.00000000E+00      0.48397509E-01
  *CL                  0.61333506E-02      0.00000000E+00      0.61333506E-02
  *O                   0.25067840E-01      0.00000000E+00      0.25067840E-01
  *C                   0.12669616E-01      0.00000000E+00      0.12669616E-01
  *S                   0.10661482E-03      0.00000000E+00      0.10661482E-03
  *AL                  0.33356142E-02      0.00000000E+00      0.33356142E-02
  *Mg                  0.49622374E-04      0.00000000E+00      0.49622374E-04

 POINT ITN      T            N           H           CL          O 
                    C           S           AL          MG
   1   16    2426.427     -13.348      -8.847     -21.966     -20.947
                 -10.657     -16.850     -14.895     -20.739
 ADD  AL2O3(L)       
   1    6    2723.267     -13.566      -9.031     -20.873     -19.873
                 -11.560     -17.287     -19.677     -21.560
   2    3    2706.908     -13.903      -9.368     -21.236     -19.931
                 -12.205     -17.470     -19.757     -21.639
   3    3    2686.641     -14.237      -9.703     -21.603     -20.003
                 -12.838     -17.700     -19.857     -21.744
   4    3    2653.632     -14.674     -10.143     -22.097     -20.123
                 -13.655     -18.069     -20.026     -21.936
   5    4    2541.725     -15.753     -11.231     -23.380     -20.551
                 -15.607     -19.231     -20.643     -22.757




         THERMODYNAMIC EQUILIBRIUM COMBUSTION PROPERTIES AT ASSIGNED

                                   PRESSURES

 CASE = 5              

             REACTANT                    WT FRACTION      ENERGY      TEMP
                                          (SEE NOTE)      CAL/MOL       K  
 NAME        NH4CLO4(I)                   0.7206000    -70690.010    298.150
 NAME        CHOS-Binder                  0.1858000     -2999.082    298.150
 NAME        AL(cr)                       0.0900000         0.000    298.150
 NAME        MgO(cr)                      0.0020000   -143785.851    298.150
 NAME        H2O(L)                       0.0016000    -68315.018    298.150

 O/F=    0.00000  %FUEL=  0.000000  R,EQ.RATIO= 1.947937  PHI,EQ.RATIO= 0.000000

 THERMODYNAMIC PROPERTIES

 P, ATM            34.023   17.011   8.5057   3.4023  0.34023
 T, K             2723.27  2706.91  2686.64  2653.63  2541.72
 RHO, G/CC       3.5231-3 1.7690-3 8.8925-4 3.5889-4 3.7047-5
 H, CAL/G         -484.77  -484.77  -484.77  -484.77  -484.77
 U, CAL/G         -718.64  -717.65  -716.40  -714.35  -707.17
 G, CAL/G        -7367.98 -7487.90 -7595.85 -7718.47 -7922.48
 S, CAL/(G)(K)     2.5276   2.5871   2.6468   2.7260   2.9262

 M, (1/n)          23.140   23.098   23.049   22.970   22.711
 MW, MOL WT        22.290   22.251   22.205   22.132   21.893
 (dLV/dLP)t      -1.00276 -1.00352 -1.00446 -1.00596 -1.01097
 (dLV/dLT)p        1.0516   1.0689   1.0899   1.1238   1.2417
 Cp, CAL/(G)(K)    0.5773   0.6085   0.6475   0.7129   0.9560
 GAMMAs            1.1930   1.1877   1.1816   1.1727   1.1496
 SON VEL,M/SEC     1080.4   1075.8   1070.1   1061.4   1034.3

 MOLE FRACTIONS

 ALCL             0.00018  0.00023  0.00029  0.00036  0.00051
 ALCL2            0.00003  0.00002  0.00002  0.00002  0.00001
 ALCL3            0.00005  0.00004  0.00003  0.00002  0.00000
 *ALO             0.00000  0.00000  0.00000  0.00000  0.00001
 ALOCL            0.00001  0.00002  0.00002  0.00003  0.00004
 ALOH             0.00016  0.00020  0.00025  0.00031  0.00042
 ALOHCL           0.00004  0.00003  0.00003  0.00002  0.00001
 ALOHCL2          0.00029  0.00020  0.00013  0.00008  0.00002
 AL(OH)2          0.00001  0.00001  0.00001  0.00001  0.00000
 AL(OH)2CL        0.00009  0.00006  0.00004  0.00002  0.00001
 AL(OH)3          0.00003  0.00002  0.00001  0.00001  0.00000
 *CO              0.26455  0.26403  0.26341  0.26240  0.25894
 COS              0.00005  0.00004  0.00003  0.00002  0.00001
 *CO2             0.01779  0.01783  0.01788  0.01798  0.01843
 *CL              0.00167  0.00221  0.00289  0.00401  0.00790
 *H               0.00589  0.00782  0.01023  0.01420  0.02815
 HCN              0.00001  0.00000  0.00000  0.00000  0.00000
 HCO              0.00001  0.00000  0.00000  0.00000  0.00000
 HCL              0.13187  0.13136  0.13063  0.12934  0.12471
 *H2              0.32149  0.32066  0.31963  0.31789  0.31145
 H2O              0.14656  0.14591  0.14513  0.14389  0.13988
 H2S              0.00137  0.00113  0.00089  0.00060  0.00018
 *Mg              0.00003  0.00005  0.00009  0.00016  0.00047
 MgCL             0.00006  0.00008  0.00010  0.00013  0.00014
 MgCL2            0.00099  0.00095  0.00089  0.00079  0.00045
 *MgO             0.00000  0.00000  0.00000  0.00000  0.00001
 MgOH             0.00001  0.00001  0.00001  0.00001  0.00001
 Mg(OH)2          0.00001  0.00001  0.00001  0.00001  0.00000
 NH3              0.00001  0.00001  0.00000  0.00000  0.00000
 *NO              0.00003  0.00003  0.00004  0.00005  0.00009
 *N2              0.06833  0.06821  0.06807  0.06784  0.06710
 *O               0.00001  0.00001  0.00002  0.00004  0.00016
 *OH              0.00070  0.00091  0.00117  0.00157  0.00274
 *O2              0.00000  0.00000  0.00000  0.00001  0.00003
 *S               0.00008  0.00013  0.00018  0.00026  0.00043
 SH               0.00062  0.00069  0.00073  0.00071  0.00049
 SO               0.00015  0.00023  0.00033  0.00048  0.00082
 SO2              0.00006  0.00009  0.00013  0.00019  0.00036
 S2               0.00002  0.00003  0.00004  0.00004  0.00002
 AL2O3(L)         0.03672  0.03669  0.03661  0.03647  0.03600

  * THERMODYNAMIC PROPERTIES FITTED TO 20000.K

    PRODUCTS WHICH WERE CONSIDERED BUT WHOSE MOLE FRACTIONS
    WERE LESS THAN 5.000000E-06 FOR ALL ASSIGNED CONDITIONS

 *AL             ALC             ALC2            ALH             ALHCL          
 ALHCL2          ALH2            ALH2CL          ALH3            ALN            
 ALOCL2          ALO2            ALS             ALS2            AL2            
 AL2C2           AL2CL6          AL2O            AL2O2           AL2O3          
 AL2S            AL2S2           *C              CCL             CCL2           
 CCL3            CCL4            *CH             CHCL            CHCL2          
 CHCL3           CH2             CH2CL           CH2CL2          CH3            
 CH3CL           CH2OH           CH3O            CH4             CH3OH          
 *CN             CNN             COCL            COCL2           COHCL          
 CS              CS2             C2CL            C2CL2           C2CL3          
 C2CL4           C2CL6           C2HCL           C2HCL3          C2H2,acetylene 
 C2H2CL2         C2H3CL          CH3CN           C2H4            C3H3,1-propynl 
 C3H3,2-propynl  C4H6,1butyne    C4H6,2butyne    C6H14,n-hexane  C7H16,2-methylh
 CLCN            CLO             CLO2            CL2             CL2O           
 HALO            HALO2           HNC             HOCL            HO2            
 H2SO4           MgH             MgN             MgS             Mg2            
 *N              NCO             NOCL            NO2             NO2CL          
 NO3             N2O             N2O3            N2O4            N2O5           
 N3              N3H             O3              SCL             SCL2           
 SN              SO2CL2          SO3             S2CL2           S2O            
 S3              S4              S5              S6              S7             
 S8              AL(cr)          AL(L)           ALCL3(cr)       ALCL3(L)       
 ALH3(a)         ALN(cr)         ALN(L)          AL(OH)3(a)      AL2O3(a)       
 AL2S3(a)        AL2S3(b)        AL2S3(L)        AL4C3(cr)       C(gr)          
 H2O(cr)         H2SO4(L)        Mg(cr)          Mg(L)           MgAL2O4(cr)    
 MgAL2O4(L)      MgCO3(cr)       MgCO3(L)        MgCL2(cr)       MgCL2(L)       
 MgH2(b)         MgH2(L)         MgO(cr)         MgO(L)          Mg(OH)2(cr)    
 Mg(OH)2(L)      MgS(cr)         MgS(L)          MgSO4(II)       MgSO4(I)       
 MgSO4(L)        Mg3N2(cr)       NH4CL(II)       NH4CL(III)      S(a)           
 S(b)            S(L)            SCL2(L)         S2CL2(L)       

 NOTE. WEIGHT FRACTION OF FUEL IN TOTAL FUELS AND OF OXIDANT IN TOTAL OXIDANTS



  
  
 !  EXAMPLE 6:
 !     (a)  Chapman-Jouguet detonation problem (detonation)
 !     (b)  The reactants are H2 and O2 gases.  The mixture is
 !          stoichiometric (r,e=1).
 !     (c)  The unburned gases are at 298.15 and 500 K and pressures
 !          1 bar and 30 bars (t,k=298.15,500, pbar=1,30)
 !     (d)  Thermal transport properties are called for (transport).
 !     (e)  Energy units in the final tables are in calories (calories).
  
 reac  oxid O2  wt%=100      t(k)=298.15
       fuel H2  wt%=100.     t(k)=298.15
  
  prob  detonation   case=6  t=298.15,500, r,e=1, pbar=1,20
  
 output  calories transport
 end

 OPTIONS: TP=F  HP=F  SP=F  TV=F  UV=F  SV=F  DETN=T  SHOCK=F  REFL=F  INCD=F
 RKT=F  FROZ=F  EQL=F  IONS=F  SIUNIT=F  DEBUGF=F  SHKDBG=F  DETDBG=F  TRNSPT=T

 T,K =   298.1500   500.0000

 TRACE= 0.00E+00  S/R= 0.000000E+00  H/R= 0.000000E+00  U/R= 0.000000E+00

 P,BAR =     1.000000    20.000000

    REACTANT          WT.FRAC   (ENERGY/R),K   TEMP,K  DENSITY
        EXPLODED FORMULA
 O: O2               1.000000  -0.154035E-05   298.15  0.0000
          O  2.00000
 F: H2               1.000000  -0.489101E-05   298.15  0.0000
          H  2.00000

  SPECIES BEING CONSIDERED IN THIS SYSTEM
 (CONDENSED PHASE MAY HAVE NAME LISTED SEVERAL TIMES)
  LAST thermo.inp UPDATE:    1/26/01

  g 6/97  *H               g 5/99  HO2              tpis78  *H2            
  g 8/89  H2O              g 6/99  H2O2             g 5/97  *O             
  tpis78  *OH              tpis89  *O2              tpis89  O3             
  g11/99  H2O(cr)          g11/99  H2O(L)         

 SPECIES WITH TRANSPORT PROPERTIES

        PURE SPECIES

  H                 H2                H2O               O               
  OH                O2              

     BINARY INTERACTIONS

     H               H2              
     H               O               
     H2              H2O             
     H2              O2              
     H2O             O2              
     O               O2              


 O/F =   7.936683

                       EFFECTIVE FUEL     EFFECTIVE OXIDANT        MIXTURE
 ENTHALPY                  h(2)/R              h(1)/R               h0/R
 (KG-MOL)(K)/KG       -0.24262412E-05     -0.48137850E-07     -0.31424367E-06

 KG-FORM.WT./KG             bi(2)               bi(1)               b0i
  *O                   0.00000000E+00      0.62502344E-01      0.55508435E-01
  *H                   0.99212255E+00      0.00000000E+00      0.11101687E+00

 POINT ITN      T            O           H 
   1    8    3609.246     -15.678     -10.324

 POINT ITN      T            O           H 
   1    3    3637.131     -15.600     -10.241

 POINT ITN      T            O           H 
   1    3    3680.921     -15.602     -10.237

 POINT ITN      T            O           H 
   1    2    3679.594     -15.602     -10.237
   2    5    4147.447     -14.591      -9.159
   2    3    4219.552     -14.489      -9.047
   2    3    4292.388     -14.492      -9.042
   2    2    4290.255     -14.492      -9.042
   3    6    3727.578     -15.710     -10.339
   3    3    3669.039     -15.808     -10.446
   3    3    3606.907     -15.806     -10.454
   3    2    3604.957     -15.806     -10.454
   4    5    4336.566     -14.632      -9.177
   4    3    4267.635     -14.689      -9.242
   4    3    4216.597     -14.687      -9.247
   4    2    4216.056     -14.687      -9.247


                     DETONATION PROPERTIES OF AN IDEAL REACTING GAS
 CASE = 6              

             REACTANT                    WT FRACTION      ENERGY      TEMP
                                          (SEE NOTE)      CAL/MOL       K  
 OXIDANT     O2                           1.0000000         0.000    298.150
 FUEL        H2                           1.0000000         0.000    298.150

 O/F=    7.93668  %FUEL= 11.189834  R,EQ.RATIO= 1.000000  PHI,EQ.RATIO= 1.000000

 UNBURNED GAS

 P1, ATM           0.9869  19.7385   0.9869  19.7385
 T1, K             298.15   298.15   500.00   500.00
 H1, CAL/G           0.00     0.00   118.41   118.41
 M1, (1/n)         12.010   12.010   12.010   12.010
 GAMMA1            1.4016   1.4016   1.3858   1.3858
 SON VEL1,M/SEC     537.9    537.9    692.6    692.6

 BURNED GAS

 P, ATM            18.542   409.40   10.824   240.42
 T, K             3679.59  4290.26  3604.96  4216.06
 RHO, G/CC       8.9087-4 1.7754-2 5.2196-4 1.0421-2
 H, CAL/G          677.36   752.70   758.96   837.29
 U, CAL/G          173.32   194.25   256.74   278.61
 G, CAL/G        -14642.7 -15416.7 -14599.2 -15431.0
 S, CAL/(G)(K)     4.1635   3.7689   4.2603   3.8587

 M, (1/n)          14.507   15.267   14.264   14.996
 (dLV/dLP)t      -1.08256 -1.06066 -1.08950 -1.06761
 (dLV/dLT)p        2.3666   1.8752   2.5062   1.9883
 Cp, CAL/(G)(K)    3.9030   2.4578   4.3365   2.7277
 GAMMAs            1.1287   1.1436   1.1265   1.1421
 SON VEL,M/SEC     1542.8   1634.6   1538.5   1633.9

 TRANSPORT PROPERTIES (GASES ONLY)
   CONDUCTIVITY IN UNITS OF MILLICALORIES/(CM)(K)(SEC)

 VISC,MILLIPOISE   1.1411   1.2744   1.1243   1.2591

  WITH EQUILIBRIUM REACTIONS

 Cp, CAL/(G)(K)    3.9030   2.4578   4.3365   2.7277
 CONDUCTIVITY      9.1689   5.9828  10.1411   6.6950
 PRANDTL NUMBER    0.4858   0.5235   0.4808   0.5130

  WITH FROZEN REACTIONS

 Cp, CAL/(G)(K)    0.7788   0.7939   0.7769   0.7923
 CONDUCTIVITY      1.2925   1.4230   1.2844   1.4190
 PRANDTL NUMBER    0.6876   0.7110   0.6800   0.7030

 DETONATION PARAMETERS

 P/P1              18.788   20.741   10.968   12.180
 T/T1              12.341   14.390    7.210    8.432
 M/M1              1.2079   1.2712   1.1877   1.2486
 RHO/RHO1          1.8388   1.8322   1.8067   1.8037
 DET MACH NUMBER   5.2744   5.5684   4.0135   4.2551
 DET VEL,M/SEC     2836.9   2995.1   2779.7   2947.1

 MOLE FRACTIONS

 *H               0.08097  0.04765  0.09195  0.05702
 HO2              0.00019  0.00069  0.00015  0.00058
 *H2              0.16234  0.14401  0.16705  0.15222
 H2O              0.53502  0.61304  0.51044  0.58216
 H2O2             0.00002  0.00017  0.00001  0.00012
 *O               0.03848  0.02411  0.04330  0.02868
 *OH              0.13462  0.13211  0.13647  0.13827
 *O2              0.04837  0.03823  0.05063  0.04096

  * THERMODYNAMIC PROPERTIES FITTED TO 20000.K

    PRODUCTS WHICH WERE CONSIDERED BUT WHOSE MOLE FRACTIONS
    WERE LESS THAN 5.000000E-06 FOR ALL ASSIGNED CONDITIONS

 O3              H2O(cr)         H2O(L)         

 NOTE. WEIGHT FRACTION OF FUEL IN TOTAL FUELS AND OF OXIDANT IN TOTAL OXIDANTS



  
  
 !  EXAMPLE 7:
 !     (a)  Shock tube problem (shock).
 !     (b)  Reactants are H2, O2, and Ar gases at 300 K.  Note that for shock
 !          problems reactants must be gaseous species in the thermodynamic
 !          data base.  The program calculates properties of the
 !          reactants at the temperature given (300 K) using the thermo.lib
 !          coefficients.
 !     (c)  Reactants are given in moles (moles = ...).
 !     (d)  Initial gas pressures are 10 and 20 mm Hg (p,mmhg=10,20,)
 !     (e)  Seven initial gas velocities are assigned (u1=1000,1100,1200,
 !          1250,1300,1350,1400,).  Note units of u1 are always m/s.
 !     (f)  Equilibrium calculations are to be performed for incident shock
 !          conditions (incd  eql).
 !     (g)  Frozen calculations are to be performed for incident shock
 !          conditions (incd  froz).
 !     (h)  No 'outp' dataset is given since the default values of the
 !          the parameters have the desired  values (e.g. SI units).
  
 reac   name= H2  moles= 0.050  t(k) 300.00
        name= O2  moles= 0.050  t(k) 300.00
        name= Ar  moles= 0.900  t(k) 300.00
  
 problem  case=7 p,mmhg=10,20, shock u1=1000,1100,1200,1250,1300,1350,1400,
   incd froz  eql
  
 end

 OPTIONS: TP=F  HP=F  SP=F  TV=F  UV=F  SV=F  DETN=F  SHOCK=T  REFL=F  INCD=T
 RKT=F  FROZ=T  EQL=T  IONS=F  SIUNIT=T  DEBUGF=F  SHKDBG=F  DETDBG=F  TRNSPT=F

 TRACE= 0.00E+00  S/R= 0.000000E+00  H/R= 0.000000E+00  U/R= 0.000000E+00

 P,BAR =     0.013332     0.026664

    REACTANT           MOLES    (ENERGY/R),K   TEMP,K  DENSITY
        EXPLODED FORMULA
 N: H2               0.050000   0.641758E+01   300.00  0.0000
          H  2.00000
 N: O2               0.050000   0.653777E+01   300.00  0.0000
          O  2.00000
 N: Ar               0.900000   0.462500E+01   300.00  0.0000
          AR 1.00000

  SPECIES BEING CONSIDERED IN THIS SYSTEM
 (CONDENSED PHASE MAY HAVE NAME LISTED SEVERAL TIMES)
  LAST thermo.inp UPDATE:    1/26/01

  g 3/98  *Ar              g 6/97  *H               g 5/99  HO2            
  tpis78  *H2              g 8/89  H2O              g 6/99  H2O2           
  g 5/97  *O               tpis78  *OH              tpis89  *O2            
  tpis89  O3               g11/99  H2O(cr)          g11/99  H2O(L)         

   *** INPUT FOR SHOCK PROBLEMS ***

 INCDEQ = T   REFLEQ = F   INCDFZ = T    REFLFZ = F

 U1 =    1.000000E+03 1.100000E+03 1.200000E+03 1.250000E+03 1.300000E+03
         1.350000E+03 1.400000E+03

 MACH1 = 0.000000E+00 0.000000E+00 0.000000E+00 0.000000E+00 0.000000E+00
         0.000000E+00 0.000000E+00

 O/F =   0.000000

                       EFFECTIVE FUEL     EFFECTIVE OXIDANT        MIXTURE
 ENTHALPY                  h(2)/R              h(1)/R               h0/R
 (KG-MOL)(K)/KG        0.12774941E+00      0.00000000E+00      0.12774941E+00

 KG-FORM.WT./KG             bi(2)               bi(1)               b0i
  *H                   0.26557650E-02      0.00000000E+00      0.26557650E-02
  *O                   0.26557650E-02      0.00000000E+00      0.26557650E-02
  *Ar                  0.23901885E-01      0.00000000E+00      0.23901885E-01




                         SHOCK WAVE PARAMETERS ASSUMING

                 EQUILIBRIUM COMPOSITION FOR INCIDENT SHOCKED CONDITIONS


 CASE = 7              

             REACTANT                       MOLES         ENERGY      TEMP
                                                         KJ/KG-MOL      K
 NAME        H2                           0.0500000        53.359    300.000
 NAME        O2                           0.0500000        54.358    300.000
 NAME        Ar                           0.9000000        38.455    300.000

 O/F=    0.00000  %FUEL=  0.000000  R,EQ.RATIO= 0.500000  PHI,EQ.RATIO= 0.000000

 INITIAL GAS (1)
 MACH NUMBER1      3.0480   3.3528   3.6576   3.8100   3.9624   4.1148   4.2672
 U1, M/SEC        1000.00  1100.00  1200.00  1250.00  1300.00  1350.00  1400.00
 P, BAR           0.01333  0.02666  0.02666  0.02666  0.02666  0.02666  0.02666
 T, K              300.00   300.00   300.00   300.00   300.00   300.00   300.00
 RHO, KG/CU M    2.0126-2 4.0252-2 4.0252-2 4.0252-2 4.0252-2 4.0252-2 4.0252-2
 H, KJ/KG          1.0622   1.0622   1.0622   1.0622   1.0622   1.0622   1.0622
 U, KJ/KG         -65.182  -65.182  -65.182  -65.182  -65.182  -65.182  -65.182
 G, KJ/KG        -1556.26 -1510.35 -1510.35 -1510.35 -1510.35 -1510.35 -1510.35
 S, KJ/(KG)(K)     5.1911   5.0380   5.0380   5.0380   5.0380   5.0380   5.0380

 M, (1/n)          37.654   37.654   37.654   37.654   37.654   37.654   37.654
 Cp, KJ/(KG)(K)    0.5742   0.5742   0.5742   0.5742   0.5742   0.5742   0.5742
 GAMMAs            1.6249   1.6249   1.6249   1.6249   1.6249   1.6249   1.6249
 SON VEL,M/SEC      328.1    328.1    328.1    328.1    328.1    328.1    328.1

       WARNING!!  NO CONVERGENCE FOR u1=  1000.0
  ANSWERS NOT RELIABLE, SOLUTION MAY NOT EXIST (SHCK)

 SHOCKED GAS (2)--INCIDENT--EQUILIBRIUM
 U2, M/SEC         703.53   666.91   576.09   560.23   549.01   540.16   532.35
 P, BAR           0.08449  0.21842  0.32803  0.37372  0.41964  0.46673  0.51561
 T, K             1371.90  1528.10  1816.96  1932.22  2043.84  2152.73  2258.45
 RHO, KG/CU M    2.8607-2 6.6391-2 8.3844-2 8.9812-2 9.5312-2 1.0060-1 1.0586-1
 H, KJ/KG          292.39   383.68   555.13   625.39   695.36   766.43   839.37
 U, KJ/KG         -2.9743   54.682   163.89   209.27   255.08   302.48   352.29
 G, KJ/KG        -7331.22 -7891.78 -9312.23 -9886.05 -10444.2 -10990.2 -11520.8
 S, KJ/(KG)(K)     5.5570   5.4155   5.4307   5.4401   5.4503   5.4613   5.4729

 M, (1/n)          38.619   38.619   38.614   38.608   38.597   38.580   38.552
 (dLV/dLP)t      -1.00000 -1.00000 -1.00005 -1.00010 -1.00021 -1.00040 -1.00072
 (dLV/dLT)p        1.0001   1.0002   1.0018   1.0037   1.0070   1.0123   1.0207
 Cp, KJ/(KG)(K)    0.5827   0.5869   0.6041   0.6187   0.6412   0.6747   0.7226
 GAMMAs            1.5861   1.5798   1.5570   1.5397   1.5161   1.4857   1.4497
 SON VEL,M/SEC      684.5    720.9    780.5    800.4    817.0    830.2    840.3

 P2/P1              6.654    8.192   12.302   14.016   15.738   17.504   19.337
 T2/T1              4.656    5.094    6.057    6.441    6.813    7.176    7.528
 M2/M1             1.0256   1.0256   1.0255   1.0253   1.0251   1.0246   1.0238
 RHO2/RHO1         1.4214   1.6494   2.0830   2.2312   2.3679   2.4993   2.6299
 V2, M/SEC         296.47   433.09   623.91   689.77   750.99   809.84   867.65

 MOLE FRACTIONS

 *Ar             9.2307-1 9.2306-1 9.2294-1 9.2280-1 9.2255-1 9.2213-1 9.2146-1
 *H              6.3876-9 7.1870-8 4.2700-6 1.5520-5 4.7036-5 1.2366-4 2.8724-4
 HO2             5.7290-9 2.4000-8 1.4081-7 2.4561-7 3.9561-7 5.9859-7 8.5746-7
 *H2             3.2023-7 1.8716-6 3.5078-5 8.8322-5 1.9485-4 3.8721-4 7.0177-4
 H2O             5.1272-2 5.1248-2 5.1025-2 5.0780-2 5.0378-2 4.9752-2 4.8831-2
 H2O2            2.225-10 9.429-10 4.494 -9 7.350 -9 1.120 -8 1.615 -8 2.215 -8
 *O              3.3351-7 2.0203-6 3.9781-5 1.0183-4 2.2821-4 4.6110-4 8.5168-4
 *OH             1.8156-5 6.1581-5 4.2543-4 7.8049-4 1.3113-3 2.0553-3 3.0307-3
 *O2             2.5636-2 2.5625-2 2.5530-2 2.5435-2 2.5293-2 2.5094-2 2.4835-2

  * THERMODYNAMIC PROPERTIES FITTED TO 20000.K

    PRODUCTS WHICH WERE CONSIDERED BUT WHOSE MOLE FRACTIONS
    WERE LESS THAN 5.000000E-09 FOR ALL ASSIGNED CONDITIONS

 O3              H2O(cr)         H2O(L)         




                         SHOCK WAVE PARAMETERS ASSUMING

                  FROZEN COMPOSITION FOR INCIDENT SHOCKED CONDITI1ONS


 CASE = 7              

             REACTANT                       MOLES         ENERGY      TEMP
                                                         KJ/KG-MOL      K
 NAME        H2                           0.0500000        53.359    300.000
 NAME        O2                           0.0500000        54.358    300.000
 NAME        Ar                           0.9000000        38.455    300.000

 O/F=    0.00000  %FUEL=  0.000000  R,EQ.RATIO= 0.500000  PHI,EQ.RATIO= 0.000000

 INITIAL GAS (1)
 MACH NUMBER1      3.0480   3.3528   3.6576   3.8100   3.9624   4.1148   4.2672
 U1, M/SEC        1000.00  1100.00  1200.00  1250.00  1300.00  1350.00  1400.00
 P, BAR           0.01333  0.02666  0.02666  0.02666  0.02666  0.02666  0.02666
 T, K              300.00   300.00   300.00   300.00   300.00   300.00   300.00
 RHO, KG/CU M    2.0126-2 4.0252-2 4.0252-2 4.0252-2 4.0252-2 4.0252-2 4.0252-2
 H, KJ/KG          1.0622   1.0622   1.0622   1.0622   1.0622   1.0622   1.0622
 U, KJ/KG         -65.182  -65.182  -65.182  -65.182  -65.182  -65.182  -65.182
 G, KJ/KG        -1556.26 -1510.35 -1510.35 -1510.35 -1510.35 -1510.35 -1510.35
 S, KJ/(KG)(K)     5.1911   5.0380   5.0380   5.0380   5.0380   5.0380   5.0380

 M, (1/n)          37.654   37.654   37.654   37.654   37.654   37.654   37.654
 Cp, KJ/(KG)(K)    0.5742   0.5742   0.5742   0.5742   0.5742   0.5742   0.5742
 GAMMAs            1.6249   1.6249   1.6249   1.6249   1.6249   1.6249   1.6249
 SON VEL,M/SEC      328.1    328.1    328.1    328.1    328.1    328.1    328.1

 SHOCKED GAS (2)--INCIDENT--FROZEN
 U2, M/SEC         317.26   332.77   349.41   358.06   366.89   375.87   384.99
 P, BAR           0.15074  0.36638  0.43752  0.47544  0.51494  0.55601  0.59865
 T, K             1076.14  1247.03  1433.31  1532.25  1635.05  1741.69  1852.17
 RHO, KG/CU M    6.3438-2 1.3305-1 1.3824-1 1.4052-1 1.4263-1 1.4457-1 1.4637-1
 H, KJ/KG          450.75   550.72   660.02   718.21   778.76   841.67   906.95
 U, KJ/KG          213.13   275.36   343.52   379.87   417.72   457.08   497.97
 G, KJ/KG        -5354.24 -6039.09 -6975.05 -7475.96 -7998.88 -8543.88 -9111.04
 S, KJ/(KG)(K)     5.3943   5.2844   5.3269   5.3478   5.3684   5.3888   5.4088

 M, (1/n)          37.654   37.654   37.654   37.654   37.654   37.654   37.654
 Cp, KJ/(KG)(K)    0.5841   0.5858   0.5876   0.5886   0.5895   0.5904   0.5913
 GAMMAs            1.6078   1.6049   1.6019   1.6005   1.5989   1.5974   1.5960
 SON VEL,M/SEC      618.1    664.8    712.0    735.9    759.8    783.8    807.9

 P2/P1             11.307   13.740   16.408   17.831   19.312   20.852   22.451
 T2/T1              3.587    4.157    4.778    5.108    5.450    5.806    6.174
 M2/M1             1.0000   1.0000   1.0000   1.0000   1.0000   1.0000   1.0000
 RHO2/RHO1         3.1520   3.3056   3.4344   3.4911   3.5433   3.5917   3.6365
 V2, M/SEC         682.74   767.23   850.59   891.94   933.11   974.13  1015.01

 MOLE FRACTIONS

  *H2             0.05000  0.05000  0.05000  0.05000  0.05000  0.05000  0.05000
  *O2             0.05000  0.05000  0.05000  0.05000  0.05000  0.05000  0.05000
  *Ar             0.90000  0.90000  0.90000  0.90000  0.90000  0.90000  0.90000



  
  
 #  EXAMPLE 8:
 #     (a)  Rocket problem with infinite-area combustor (rocket iac by default).
 #     (b)  The fuel is H2(L) at 20.27 K; the oxidant is O2(L) at 90.17 K.
 #          Both are in thermo.lib so that the enthalpies and "exploded" formulas
 #          do not need to be given.
 #     (c)  The oxidant-to-fuel ratio is 5.55157 (o/f=5.55157).
 #     (d)  The chamber pressure is 53.3172 bars (p,bar=53.3172).
 #     (e)  Calculations are with equilibrium chemistry only (equilibrium).
 #     (f)  For exit points there are three pressure ratios (pi/p=10,100,1000),
 #          one subsonic area ratio (subar=1.58), and three supersonic area
 #          ratios (supar=25,50,75).
  
       problem  rocket  equilibrium  o/f=5.55157
 case=8  p,bar=53.3172 subar=1.58,pi/p=10,100,1000,supar=25,50,75
       reactants
 fuel = H2(L)  wt% 100.   t(k) 20.27
 oxid = O2(L)  wt% 100.   t(k) 90.17
       output  siunits
       end

 OPTIONS: TP=F  HP=F  SP=F  TV=F  UV=F  SV=F  DETN=F  SHOCK=F  REFL=F  INCD=F
 RKT=T  FROZ=F  EQL=T  IONS=F  SIUNIT=T  DEBUGF=F  SHKDBG=F  DETDBG=F  TRNSPT=F

 TRACE= 0.00E+00  S/R= 0.000000E+00  H/R= 0.000000E+00  U/R= 0.000000E+00

 Pc,BAR =    53.317200

 Pc/P =    10.0000   100.0000  1000.0000

 SUBSONIC AREA RATIOS =     1.5800

 SUPERSONIC AREA RATIOS =    25.0000    50.0000    75.0000

 NFZ=  1  Mdot/Ac= 0.000000E+00  Ac/At= 0.000000E+00

    REACTANT          WT.FRAC   (ENERGY/R),K   TEMP,K  DENSITY
        EXPLODED FORMULA
 F: H2(L)            1.000000  -0.108389E+04    20.27  0.0000
          H  2.00000
 O: O2(L)            1.000000  -0.156101E+04    90.17  0.0000
          O  2.00000

  SPECIES BEING CONSIDERED IN THIS SYSTEM
 (CONDENSED PHASE MAY HAVE NAME LISTED SEVERAL TIMES)
  LAST thermo.inp UPDATE:    1/26/01

  g 6/97  *H               g 5/99  HO2              tpis78  *H2            
  g 8/89  H2O              g 6/99  H2O2             g 5/97  *O             
  tpis78  *OH              tpis89  *O2              tpis89  O3             
  g11/99  H2O(cr)          g11/99  H2O(L)         

 O/F =   5.551570

                       EFFECTIVE FUEL     EFFECTIVE OXIDANT        MIXTURE
 ENTHALPY                  h(2)/R              h(1)/R               h0/R
 (KG-MOL)(K)/KG       -0.53767500E+03     -0.48783267E+02     -0.12340534E+03

 KG-FORM.WT./KG             bi(2)               bi(1)               b0i
  *H                   0.99212255E+00      0.00000000E+00      0.15143279E+00
  *O                   0.00000000E+00      0.62502344E-01      0.52962288E-01

 POINT ITN      T            H           O 
   1    9    3389.264      -9.266     -16.561
 Pinf/Pt = 1.737856
   2    4    3190.527      -9.433     -16.968
 Pinf/Pt = 1.739442
   2    2    3190.202      -9.434     -16.968
   3    4    2568.395      -9.922     -18.802
   4    4    1759.120     -10.454     -23.533
   5    4    1115.281     -10.958     -32.668
   6    3    3360.172      -9.291     -16.616
   6    2    3354.644      -9.295     -16.627
   6    2    3353.971      -9.296     -16.628
   6    1    3353.963      -9.296     -16.628
   7    5    1441.191     -10.682     -26.980
   7    2    1467.040     -10.662     -26.641
   8    3    1241.430     -10.845     -30.099
   8    2    1218.631     -10.864     -30.523





              THEORETICAL ROCKET PERFORMANCE ASSUMING EQUILIBRIUM

           COMPOSITION DURING EXPANSION FROM INFINITE AREA COMBUSTOR

 Pinj =   773.3 PSIA
 CASE = 8              

             REACTANT                    WT FRACTION      ENERGY      TEMP
                                          (SEE NOTE)     KJ/KG-MOL      K  
 FUEL        H2(L)                        1.0000000     -9012.000     20.270
 OXIDANT     O2(L)                        1.0000000    -12979.000     90.170

 O/F=    5.55157  %FUEL= 15.263517  R,EQ.RATIO= 1.429629  PHI,EQ.RATIO= 1.429629

                 CHAMBER   THROAT     EXIT     EXIT     EXIT     EXIT     EXIT     EXIT
 Pinf/P            1.0000   1.7394   10.000   100.00  1000.00   1.1020   260.57   655.41
 P, BAR            53.317   30.652   5.3317  0.53317  0.05332   48.381  0.20462  0.08135
 T, K             3389.26  3190.20  2568.39  1759.12  1115.28  3353.96  1467.04  1218.63
 RHO, KG/CU M    2.4071 0 1.4848 0 3.2770-1 4.8139-2 7.5938-3 2.2113 0 2.2155-2 1.0604-2
 H, KJ/KG        -1026.05 -2210.09 -5432.06 -8564.24 -10623.5 -1239.91 -9535.06 -10313.3
 U, KJ/KG        -3241.03 -4274.40 -7059.06 -9671.81 -11325.7 -3427.81 -10458.6 -11080.5
 G, KJ/KG        -64259.6 -61729.7 -53350.6 -41384.2 -31431.3 -63814.8 -36905.6 -33049.3
 S, KJ/(KG)(K)    18.6570  18.6570  18.6570  18.6570  18.6570  18.6570  18.6570  18.6570

 M, (1/n)          12.722   12.849   13.125   13.206   13.207   12.746   13.207   13.207
 (dLV/dLP)t      -1.01996 -1.01459 -1.00317 -1.00005 -1.00000 -1.01897 -1.00000 -1.00000
 (dLV/dLT)p        1.3627   1.2808   1.0739   1.0017   1.0000   1.3483   1.0001   1.0000
 Cp, KJ/(KG)(K)    8.2838   7.4300   4.8448   3.4332   2.9621   8.1391   3.2226   3.0413
 GAMMAs            1.1449   1.1472   1.1732   1.2254   1.2699   1.1451   1.2429   1.2610
 SON VEL,M/SEC     1592.4   1538.9   1381.6   1165.0    944.3   1582.8   1071.4    983.6
 MACH NUMBER        0.000    1.000    2.149    3.333    4.640    0.413    3.850    4.382

 PERFORMANCE PARAMETERS

 Ae/At                      1.0000   2.3489   12.225   68.680   1.5800   25.000   50.000
 CSTAR, M/SEC               2333.4   2333.4   2333.4   2333.4   2333.4   2333.4   2333.4
 CF                         0.6595   1.2722   1.6640   1.8776   0.2803   1.7679   1.8470
 Ivac, M/SEC                2880.3   3516.6   4168.1   4541.5   3999.5   4349.2   4487.8
 Isp, M/SEC                 1538.9   2968.5   3882.8   4381.2    654.0   4125.3   4309.8


 MOLE FRACTIONS

 *H               0.03390  0.02683  0.00797  0.00019  0.00000  0.03264  0.00001  0.00000
 HO2              0.00002  0.00001  0.00000  0.00000  0.00000  0.00001  0.00000  0.00000
 *H2              0.29410  0.29373  0.29695  0.30040  0.30052  0.29398  0.30051  0.30052
 H2O              0.63643  0.65439  0.69081  0.69938  0.69948  0.63976  0.69948  0.69948
 H2O2             0.00001  0.00000  0.00000  0.00000  0.00000  0.00001  0.00000  0.00000
 *O               0.00214  0.00124  0.00007  0.00000  0.00000  0.00196  0.00000  0.00000
 *OH              0.03162  0.02271  0.00413  0.00003  0.00000  0.02998  0.00000  0.00000
 *O2              0.00179  0.00108  0.00007  0.00000  0.00000  0.00165  0.00000  0.00000

  * THERMODYNAMIC PROPERTIES FITTED TO 20000.K

    PRODUCTS WHICH WERE CONSIDERED BUT WHOSE MOLE FRACTIONS
    WERE LESS THAN 5.000000E-06 FOR ALL ASSIGNED CONDITIONS

 O3              H2O(cr)         H2O(L)         

 NOTE. WEIGHT FRACTION OF FUEL IN TOTAL FUELS AND OF OXIDANT IN TOTAL OXIDANTS





   3    3    1067.059     -11.004     -33.815
   3    2    1087.735     -10.984     -33.310





              THEORETICAL ROCKET PERFORMANCE ASSUMING EQUILIBRIUM

[...]
 *O2             8.566 -8 5.033 -8 9.281 -8 1.099 -8 3.612-10 3.076-15
 BeO(a)          0.0000 0 0.0000 0 0.0000 0 0.0000 0 1.9869-1 1.9892-1
 BeO(b)          0.0000 0 2.0170-2 1.6159-1 1.9750-1 0.0000 0 0.0000 0
 BeO(L)          1.9218-1 1.7349-1 3.1804-2 0.0000 0 0.0000 0 0.0000 0

  * THERMODYNAMIC PROPERTIES FITTED TO 20000.K

    PRODUCTS WHICH WERE CONSIDERED BUT WHOSE MOLE FRACTIONS
    WERE LESS THAN 1.000000E-10 FOR ALL ASSIGNED CONDITIONS

 Be2             HNO3            NO2             NO3             NH2NO2         
 N2H4            N2O3            N2O4            N2O5            N3             
 O3              Be(a)           Be(b)           Be(L)           Be(OH)2(b)     
 Be3N2(a)        Be3N2(b)        Be3N2(L)        H2O(cr)         H2O(L)         

 NOTE. WEIGHT FRACTION OF FUEL IN TOTAL FUELS AND OF OXIDANT IN TOTAL OXIDANTS



  
  
 !  EXAMPLE 14:
 !     (a)  Output from this case is used 1) to illustrate the effect of
 !          condensed species on volume and molecular weight (see sec.2.2,part I)
 !     (b)  Assigned-temperature-and-pressure problem (tp).
 !     (c)  Reactants are H2(L) and O2(L) and amounts are specified in moles.
 !     (d)  The "exploded" formulas are given to save the program looking them
 !          up.  Reactant enthalpies are not needed for assigned temperature
 !          problems.
 !     (e)  Assigned pressure in atmospheres is p,atm =.05.
 !     (f)  Assigned temperatures in kelvin are t,k =1000,500,351,305,304.3,
 !          304, 300.
 !     (g)  Print intermediate output for the fifth point with debug = 5.
  
 	reac    name H2(L) moles=100   H 2
 		name O2(L) moles=60    O 2
  
 	prob    tp  p,atm=.05  case=14
 		t,k = 1000,500,350,305,304.3,304.2,304,300,
  
 	output  siunits  debug = 5
  
 	end

 OPTIONS: TP=T  HP=F  SP=F  TV=F  UV=F  SV=F  DETN=F  SHOCK=F  REFL=F  INCD=F
 RKT=F  FROZ=F  EQL=F  IONS=F  SIUNIT=T  DEBUGF=F  SHKDBG=F  DETDBG=F  TRNSPT=F

 T,K =  1000.0000   500.0000   350.0000   305.0000   304.3000   304.2000   304.0000

 T,K =   300.0000

 TRACE= 0.00E+00  S/R= 0.000000E+00  H/R= 0.000000E+00  U/R= 0.000000E+00

 P,BAR =     0.050662

    REACTANT           MOLES    (ENERGY/R),K   TEMP,K  DENSITY
        EXPLODED FORMULA
 N: H2(L)          100.000000  -0.108389E+04    20.27  0.8740
          H  2.00000
 N: O2(L)           60.000000  -0.156101E+04    90.17  1.4310
          O  2.00000

  SPECIES BEING CONSIDERED IN THIS SYSTEM
 (CONDENSED PHASE MAY HAVE NAME LISTED SEVERAL TIMES)
  LAST thermo.inp UPDATE:    1/26/01

  g 6/97  *H               g 5/99  HO2              tpis78  *H2            
  g 8/89  H2O              g 6/99  H2O2             g 5/97  *O             
  tpis78  *OH              tpis89  *O2              tpis89  O3             
  g11/99  H2O(cr)          g11/99  H2O(L)         

 O/F =   0.000000

                       EFFECTIVE FUEL     EFFECTIVE OXIDANT        MIXTURE
 ENTHALPY                  h(2)/R              h(1)/R               h0/R
 (KG-MOL)(K)/KG       -0.95238117E+02      0.00000000E+00     -0.95238117E+02

 KG-FORM.WT./KG             bi(2)               bi(1)               b0i
  *H                   0.94272209E-01      0.00000000E+00      0.94272209E-01
  *O                   0.56563325E-01      0.00000000E+00      0.56563325E-01

 POINT ITN      T            H           O 
   1   10    1000.000     -20.527     -15.973
   2    3     500.000     -34.596     -15.230
   3    1     350.000     -46.944     -15.049
   4    1     305.000     -53.061     -15.028

 ITERATION  1      MATRIX 
      0.188544E+00   0.942722E-01   0.942722E-01  -0.114417E+02
      0.942722E-01   0.659905E-01   0.565633E-01  -0.600419E+01
      0.942722E-01   0.565633E-01   0.000000E+00  -0.586253E+01

 SOLUTION VECTOR
         H              O           
     -0.531707E+02  -0.150274E+02  -0.192711E-13

 T= 0.30430000E+03 ENN= 0.51849715E-01 ENNL=-0.29594058E+01 PP= 0.50662500E-01
 LN P/N=-0.23163446E-01 AMBDA= 0.10000000E+01

                        Nj            LN Nj        DEL LN Nj      H0j/RT
                                         S0j/R           G0j/RT         Gj/RT
  *H                0.000000E+00  -0.125204E+03  -0.307497E+00   0.862125E+02
                                      0.138484E+02   0.723641E+02  -0.528633E+02
  HO2               0.000000E+00  -0.604867E+02  -0.121044E+00   0.504603E+01
                                      0.276408E+02  -0.225947E+02  -0.831046E+02
  *H2               0.000000E+00  -0.903810E+02  -0.219421E+00   0.701441E-01
                                      0.157881E+02  -0.157179E+02  -0.106122E+03
  H2O               0.471361E-01  -0.305472E+01   0.888178E-14  -0.954977E+02
                                      0.227933E+02  -0.118291E+03  -0.121369E+03
  H2O2              0.000000E+00  -0.543639E+02  -0.960705E-01  -0.536019E+02
                                      0.283113E+02  -0.819133E+02  -0.136300E+03
  *O                0.000000E+00  -0.938907E+02  -0.226071E+00   0.985373E+02
                                      0.194248E+02   0.791125E+02  -0.148014E+02
  *OH               0.000000E+00  -0.614806E+02  -0.145404E+00   0.156230E+02
                                      0.221720E+02  -0.654904E+01  -0.680528E+02
  *O2               0.471361E-02  -0.535730E+01  -0.124345E-12   0.714483E-01
                                      0.247458E+02  -0.246744E+02  -0.300549E+02
  O3                0.000000E+00  -0.722284E+02  -0.128601E+00   0.561412E+02
                                      0.288433E+02   0.272979E+02  -0.449537E+02
  H2O(cr)           0.000000E+00   0.000000E+00   0.000000E+00  -0.115317E+03
                                      0.550772E+01  -0.120825E+03  -0.115206E+03
  H2O(L)            0.000000E+00   0.000000E+00   0.000000E+00  -0.112509E+03
                                      0.861762E+01  -0.121126E+03  -0.172809E+03
   5    1     304.300     -53.171     -15.027

 H2O(cr)           200.000   273.150     0.0000000E+00

 H2O(L)            273.150   600.000     0.0000000E+00
 [G0j-SUM(Aij*PIi)]/Mj = -0.9014030E-03         MAX NEG DELTA G = -0.9014030E-03
 ADD  H2O(L)         

 ITERATION  0      MATRIX 
      0.188544E+00   0.942722E-01   0.200000E+01   0.942722E-01  -0.114417E+02
      0.942722E-01   0.659905E-01   0.100000E+01   0.565633E-01  -0.600419E+01
      0.200000E+01   0.100000E+01   0.000000E+00   0.000000E+00  -0.121385E+03
      0.942722E-01   0.565633E-01   0.000000E+00   0.132533E-14  -0.586253E+01

 SOLUTION VECTOR
         H              O           
     -0.532195E+02  -0.149462E+02   0.841989E-02  -0.162390E+00

 T= 0.30430000E+03 ENN= 0.51849715E-01 ENNL=-0.29594058E+01 PP= 0.50662500E-01
 LN P/N=-0.23163446E-01 AMBDA= 0.10000000E+01

                        Nj            LN Nj        DEL LN Nj      H0j/RT
                                         S0j/R           G0j/RT         Gj/RT
  *H                0.000000E+00  -0.125512E+03  -0.211107E+00   0.862125E+02
                                      0.138484E+02   0.723641E+02  -0.531707E+02
  HO2               0.000000E+00  -0.606077E+02  -0.487171E-01   0.504603E+01
                                      0.276408E+02  -0.225947E+02  -0.832256E+02
  *H2               0.000000E+00  -0.906004E+02  -0.259824E+00   0.701441E-01
                                      0.157881E+02  -0.157179E+02  -0.106341E+03
  H2O               0.471361E-01  -0.305472E+01  -0.178629E+00  -0.954977E+02
                                      0.227933E+02  -0.118291E+03  -0.121369E+03
  H2O2              0.000000E+00  -0.544599E+02  -0.974342E-01  -0.536019E+02
                                      0.283113E+02  -0.819133E+02  -0.136396E+03
  *O                0.000000E+00  -0.941168E+02  -0.811951E-01   0.985373E+02
                                      0.194248E+02   0.791125E+02  -0.150274E+02
  *OH               0.000000E+00  -0.616260E+02  -0.129912E+00   0.156230E+02
                                      0.221720E+02  -0.654904E+01  -0.681982E+02
  *O2               0.471361E-02  -0.535730E+01   0.113687E-12   0.714483E-01
                                      0.247458E+02  -0.246744E+02  -0.300549E+02
  O3                0.000000E+00  -0.723570E+02   0.811951E-01   0.561412E+02
                                      0.288433E+02   0.272979E+02  -0.450823E+02
  H2O(cr)           0.000000E+00   0.000000E+00   0.000000E+00  -0.115594E+03
                                      0.549580E+01  -0.121090E+03  -0.115206E+03
  H2O(L)            0.000000E+00   0.000000E+00   0.841989E-02  -0.112788E+03
                                      0.859679E+01  -0.121385E+03  -0.121385E+03

 ITERATION  1      MATRIX 
      0.157702E+00   0.788508E-01   0.200000E+01   0.788508E-01  -0.957273E+01
      0.788508E-01   0.582798E-01   0.100000E+01   0.488526E-01  -0.506817E+01
      0.200000E+01   0.100000E+01   0.000000E+00   0.000000E+00  -0.121385E+03
      0.788508E-01   0.488526E-01   0.000000E+00   0.610695E-04  -0.492662E+01

 SOLUTION VECTOR
         H              O           
     -0.532162E+02  -0.149528E+02  -0.122667E-02   0.131261E-01

 T= 0.30430000E+03 ENN= 0.44077928E-01 ENNL=-0.31217961E+01 PP= 0.50662500E-01
 LN P/N= 0.13922683E+00 AMBDA= 0.10000000E+01

                        Nj            LN Nj        DEL LN Nj      H0j/RT
                                         S0j/R           G0j/RT         Gj/RT
  *H                0.000000E+00  -0.125723E+03   0.164076E-01   0.862125E+02
                                      0.138484E+02   0.723641E+02  -0.532195E+02
  HO2               0.000000E+00  -0.606564E+02   0.328151E-02   0.504603E+01
                                      0.276408E+02  -0.225947E+02  -0.831119E+02
  *H2               0.000000E+00  -0.908602E+02   0.196891E-01   0.701441E-01
                                      0.157881E+02  -0.157179E+02  -0.106439E+03
  H2O               0.394254E-01  -0.323335E+01   0.131261E-01  -0.954977E+02
                                      0.227933E+02  -0.118291E+03  -0.121385E+03
  H2O2              0.000000E+00  -0.545574E+02   0.656303E-02  -0.536019E+02
                                      0.283113E+02  -0.819133E+02  -0.136331E+03
  *O                0.000000E+00  -0.941979E+02   0.656303E-02   0.985373E+02
                                      0.194248E+02   0.791125E+02  -0.149462E+02
  *OH               0.000000E+00  -0.617559E+02   0.984454E-02   0.156230E+02
                                      0.221720E+02  -0.654904E+01  -0.681657E+02
  *O2               0.471361E-02  -0.535730E+01  -0.284217E-13   0.714483E-01
                                      0.247458E+02  -0.246744E+02  -0.298925E+02
  O3                0.000000E+00  -0.722758E+02  -0.656303E-02   0.561412E+02
                                      0.288433E+02   0.272979E+02  -0.448387E+02
  H2O(cr)           0.000000E+00   0.000000E+00   0.000000E+00  -0.115594E+03
                                      0.549580E+01  -0.121090E+03  -0.115206E+03
  H2O(L)            0.841989E-02   0.000000E+00  -0.122667E-02  -0.112788E+03
                                      0.859679E+01  -0.121385E+03  -0.121385E+03

 ITERATION  2      MATRIX 
      0.159785E+00   0.798926E-01   0.200000E+01   0.798926E-01  -0.969778E+01
      0.798926E-01   0.588007E-01   0.100000E+01   0.493735E-01  -0.513082E+01
      0.200000E+01   0.100000E+01   0.000000E+00   0.000000E+00  -0.121385E+03
      0.798926E-01   0.493735E-01   0.000000E+00  -0.402560E-06  -0.498985E+01

 SOLUTION VECTOR
         H              O           
     -0.532162E+02  -0.149528E+02  -0.188579E-14  -0.853965E-04

 T= 0.30430000E+03 ENN= 0.44660311E-01 ENNL=-0.31086701E+01 PP= 0.50662500E-01
 LN P/N= 0.12610078E+00 AMBDA= 0.10000000E+01

                        Nj            LN Nj        DEL LN Nj      H0j/RT
                                         S0j/R           G0j/RT         Gj/RT
  *H                0.000000E+00  -0.125706E+03  -0.106746E-03   0.862125E+02
                                      0.138484E+02   0.723641E+02  -0.532162E+02
  HO2               0.000000E+00  -0.606531E+02  -0.213491E-04   0.504603E+01
                                      0.276408E+02  -0.225947E+02  -0.831218E+02
  *H2               0.000000E+00  -0.908405E+02  -0.128095E-03   0.701441E-01
                                      0.157881E+02  -0.157179E+02  -0.106432E+03
  H2O               0.399463E-01  -0.322022E+01  -0.853965E-04  -0.954977E+02
                                      0.227933E+02  -0.118291E+03  -0.121385E+03
  H2O2              0.000000E+00  -0.545508E+02  -0.426983E-04  -0.536019E+02
                                      0.283113E+02  -0.819133E+02  -0.136338E+03
  *O                0.000000E+00  -0.941914E+02  -0.426983E-04   0.985373E+02
                                      0.194248E+02   0.791125E+02  -0.149528E+02
  *OH               0.000000E+00  -0.617460E+02  -0.640474E-04   0.156230E+02
                                      0.221720E+02  -0.654904E+01  -0.681690E+02
  *O2               0.471361E-02  -0.535730E+01  -0.142109E-13   0.714483E-01
                                      0.247458E+02  -0.246744E+02  -0.299056E+02
  O3                0.000000E+00  -0.722824E+02   0.426983E-04   0.561412E+02
                                      0.288433E+02   0.272979E+02  -0.448584E+02
  H2O(cr)           0.000000E+00   0.000000E+00   0.000000E+00  -0.115594E+03
                                      0.549580E+01  -0.121090E+03  -0.115206E+03
  H2O(L)            0.719322E-02   0.000000E+00  -0.188579E-14  -0.112788E+03
                                      0.859679E+01  -0.121385E+03  -0.121385E+03

 ITERATION  3      MATRIX 
      0.159772E+00   0.798858E-01   0.200000E+01   0.798858E-01  -0.969695E+01
      0.798858E-01   0.587973E-01   0.100000E+01   0.493701E-01  -0.513040E+01
      0.200000E+01   0.100000E+01   0.000000E+00   0.000000E+00  -0.121385E+03
      0.798858E-01   0.493701E-01   0.000000E+00  -0.171881E-10  -0.498944E+01

 SOLUTION VECTOR
         H              O           
     -0.532162E+02  -0.149528E+02  -0.151306E-15  -0.364647E-08

 T= 0.30430000E+03 ENN= 0.44656498E-01 ENNL=-0.31087555E+01 PP= 0.50662500E-01
 LN P/N= 0.12618617E+00 AMBDA= 0.10000000E+01

                        Nj            LN Nj        DEL LN Nj      H0j/RT
                                         S0j/R           G0j/RT         Gj/RT
  *H                0.000000E+00  -0.125707E+03  -0.455809E-08   0.862125E+02
                                      0.138484E+02   0.723641E+02  -0.532162E+02
  HO2               0.000000E+00  -0.606532E+02  -0.911623E-09   0.504603E+01
                                      0.276408E+02  -0.225947E+02  -0.831217E+02
  *H2               0.000000E+00  -0.908407E+02  -0.546972E-08   0.701441E-01
                                      0.157881E+02  -0.157179E+02  -0.106432E+03
  H2O               0.399429E-01  -0.322030E+01  -0.364648E-08  -0.954977E+02
                                      0.227933E+02  -0.118291E+03  -0.121385E+03
  H2O2              0.000000E+00  -0.545508E+02  -0.182323E-08  -0.536019E+02
                                      0.283113E+02  -0.819133E+02  -0.136338E+03
  *O                0.000000E+00  -0.941914E+02  -0.182323E-08   0.985373E+02
                                      0.194248E+02   0.791125E+02  -0.149528E+02
  *OH               0.000000E+00  -0.617461E+02  -0.273486E-08   0.156230E+02
                                      0.221720E+02  -0.654904E+01  -0.681690E+02
  *O2               0.471361E-02  -0.535730E+01   0.355271E-14   0.714483E-01
                                      0.247458E+02  -0.246744E+02  -0.299055E+02
  O3                0.000000E+00  -0.722823E+02   0.182325E-08   0.561412E+02
                                      0.288433E+02   0.272979E+02  -0.448583E+02
  H2O(cr)           0.000000E+00   0.000000E+00   0.000000E+00  -0.115594E+03
                                      0.549580E+01  -0.121090E+03  -0.115206E+03
  H2O(L)            0.719322E-02   0.000000E+00  -0.151306E-15  -0.112788E+03
                                      0.859679E+01  -0.121385E+03  -0.121385E+03
   5    3     304.300     -53.216     -14.953

 H2O(cr)           200.000   273.150     0.0000000E+00

 H2O(L)            273.150   600.000     0.7193218E-02

 T DERIV MATRIX
      0.159772E+00   0.798858E-01   0.200000E+01   0.798858E-01  -0.762891E+01
      0.798858E-01   0.587973E-01   0.100000E+01   0.493701E-01  -0.381378E+01
      0.200000E+01   0.100000E+01   0.000000E+00   0.000000E+00  -0.112788E+03
      0.798858E-01   0.493701E-01   0.000000E+00   0.000000E+00  -0.381412E+01

 SOLUTION VECTOR
         H              O           
     -0.930420E+02   0.732957E+02   0.654307E+01  -0.146520E+03

 P DERIV MATRIX
      0.159772E+00   0.798858E-01   0.200000E+01   0.798858E-01   0.798858E-01
      0.798858E-01   0.587973E-01   0.100000E+01   0.493701E-01   0.493701E-01
      0.200000E+01   0.100000E+01   0.000000E+00   0.000000E+00   0.000000E+00
      0.798858E-01   0.493701E-01   0.000000E+00   0.000000E+00   0.446565E-01

 SOLUTION VECTOR
         H              O           
     -0.236849E+01   0.473697E+01   0.378417E+00  -0.847395E+01

 POINT=  5   P= 0.506625E-01   T= 0.304300E+03
   H/R=-0.140752E+04   S/R= 0.123716E+01
   M= 0.223932E+02   CP/R= 0.113377E+03   DLVPT=-0.947395E+01
   DLVTP= 0.147520E+03   GAMMA(S)= 0.110818E+01   V= 0.223016E+07
   6    3     304.200     -53.246     -14.929
   7    4     304.000     -53.305     -14.886
   8    6     300.000     -54.288     -14.426




               THERMODYNAMIC EQUILIBRIUM PROPERTIES AT ASSIGNED

                           TEMPERATURE AND PRESSURE

 CASE = 14             

             REACTANT                       MOLES         ENERGY      TEMP
                                                         KJ/KG-MOL      K
 NAME        H2(L)                      100.0000000     -9012.000     20.270
 NAME        O2(L)                       60.0000000    -12979.000     90.170

 REACTANT DENSITY= 1349.29 KG/CU M

 O/F=    0.00000  %FUEL=  0.000000  R,EQ.RATIO= 0.833333  PHI,EQ.RATIO= 0.000000

 THERMODYNAMIC PROPERTIES

 P, BAR           0.05066  0.05066  0.05066  0.05066  0.05066  0.05066  0.05066  0.05066
 T, K             1000.00   500.00   350.00   305.00   304.30   304.20   304.00   300.00
 RHO, KG/CU M    1.1752-2 2.3504-2 3.3577-2 3.8530-2 4.4840-2 4.7009-2 5.1320-2 1.3024-1
 H, KJ/KG        -10066.0 -11043.6 -11309.1 -11386.9 -11702.8 -11792.6 -11948.5 -12988.1
 U, KJ/KG        -10497.1 -11259.2 -11460.0 -11518.4 -11815.8 -11900.3 -12047.2 -13027.0
 G, KJ/KG        -23601.6 -17139.8 -15355.8 -14840.7 -14833.0 -14831.9 -14830.0 -14801.2
 S, KJ/(KG)(K)    13.5356  12.1924  11.5619  11.3239  10.2864   9.9914   9.4787   6.0436

 M, (1/n)          19.287   19.287   19.287   19.287   22.393   23.469   25.604   64.123
 MW, MOL WT        19.287   19.287   19.287   19.287   19.287   19.287   19.287   19.287
 (dLV/dLP)t      -1.00000 -1.00000 -1.00000 -1.00000 -9.47395 -9.03976 -8.28587 -3.30853
 (dLV/dLT)p        1.0000   1.0000   1.0000   1.0000 147.5200 140.0715 127.1378  41.6543
 Cp, KJ/(KG)(K)    2.1108   1.8069   1.7370   1.7233 942.6760 854.3855 711.4068  96.0697
 GAMMAs            1.2567   1.3133   1.3301   1.3336   1.1082   1.1061   1.1019   1.0345
 SON VEL,M/SEC      736.0    532.1    448.0    418.8    353.8    345.3    329.8    200.6

 MOLE FRACTIONS

 H2O              0.90909  0.90909  0.90909  0.90909  0.77036  0.73089  0.66235  0.20987
 *O2              0.09091  0.09091  0.09091  0.09091  0.09091  0.09091  0.09091  0.09091
 H2O(L)           0.00000  0.00000  0.00000  0.00000  0.13873  0.17820  0.24674  0.69922

  * THERMODYNAMIC PROPERTIES FITTED TO 20000.K

    PRODUCTS WHICH WERE CONSIDERED BUT WHOSE MOLE FRACTIONS
    WERE LESS THAN 5.000000E-06 FOR ALL ASSIGNED CONDITIONS

 *H              HO2             *H2             H2O2            *O             
 *OH             O3              H2O(cr)        



